Nit_dihe
  PyMOL2.3          3D                             0

 50 52  0  0  0  0  0  0  0  0999 V2000
   23.2500   24.5500    9.1200 N   0  0  0  0  0  0  0  0  0  0  0  0
   25.1000   27.0200    8.2900 N   0  0  0  0  0  0  0  0  0  0  0  0
   23.3800   23.8400   11.2200 N   0  0  0  0  0  0  0  0  0  0  0  0
   23.8800   19.0400    9.9200 N   0  0  0  0  0  0  0  0  0  0  0  0
   23.1900   25.4300    7.9300 C   0  0  0  0  0  0  0  0  0  0  0  0
   24.6000   25.9100    7.4500 C   0  0  0  0  0  0  0  0  0  0  0  0
   23.2500   24.9100   10.4600 C   0  0  0  0  0  0  0  0  0  0  0  0
   23.3600   23.1900    9.0300 C   0  0  0  0  0  0  0  0  0  0  0  0
   23.4600   22.7700   10.3600 C   0  0  0  0  0  0  0  0  0  0  0  0
   23.0800   26.3100   10.9100 C   0  0  0  0  0  0  0  0  0  0  0  0
   24.5800   28.3200    7.8700 C   0  0  0  0  0  0  0  0  0  0  0  0
   26.4900   26.8300    8.6900 C   0  0  0  0  0  0  0  0  0  0  0  0
   23.3600   22.2200    8.0300 C   0  0  0  0  0  0  0  0  0  0  0  0
   23.6500   21.3800   10.6300 C   0  0  0  0  0  0  0  0  0  0  0  0
   23.0900   26.5400   12.4200 C   0  0  0  0  0  0  0  0  0  0  0  0
   23.7700   20.4000    9.6200 C   0  0  0  0  0  0  0  0  0  0  0  0
   24.6000   29.3000    9.0200 C   0  0  0  0  0  0  0  0  0  0  0  0
   26.6400   25.5600    9.5400 C   0  0  0  0  0  0  0  0  0  0  0  0
   23.5400   20.8600    8.3400 C   0  0  0  0  0  0  0  0  0  0  0  0
   21.9000   26.4200   13.1600 C   0  0  0  0  0  0  0  0  0  0  0  0
   24.2600   26.8400   13.1700 C   0  0  0  0  0  0  0  0  0  0  0  0
   21.8300   26.5300   14.5200 C   0  0  0  0  0  0  0  0  0  0  0  0
   24.1600   26.9300   14.6100 C   0  0  0  0  0  0  0  0  0  0  0  0
   22.9600   26.8100   15.3200 C   0  0  0  0  0  0  0  0  0  0  0  0
   24.0600   18.2500    9.0500 O   0  0  0  0  0  0  0  0  0  0  0  0
   23.7200   18.7600   11.1100 O   0  0  0  0  0  0  0  0  0  0  0  0
   22.5000   26.2700    8.0600 H   0  0  0  0  0  0  0  0  0  0  0  0
   22.7200   24.8100    7.1500 H   0  0  0  0  0  0  0  0  0  0  0  0
   25.2700   25.0600    7.3100 H   0  0  0  0  0  0  0  0  0  0  0  0
   24.5600   26.3800    6.4600 H   0  0  0  0  0  0  0  0  0  0  0  0
   23.9200   26.8200   10.4300 H   0  0  0  0  0  0  0  0  0  0  0  0
   22.1900   26.8500   10.5700 H   0  0  0  0  0  0  0  0  0  0  0  0
   23.5600   28.2800    7.4800 H   0  0  0  0  0  0  0  0  0  0  0  0
   25.2400   28.6300    7.0500 H   0  0  0  0  0  0  0  0  0  0  0  0
   26.9500   27.6400    9.2700 H   0  0  0  0  0  0  0  0  0  0  0  0
   27.0900   26.8300    7.7800 H   0  0  0  0  0  0  0  0  0  0  0  0
   23.2100   22.5400    7.0000 H   0  0  0  0  0  0  0  0  0  0  0  0
   23.8600   21.1400   11.6600 H   0  0  0  0  0  0  0  0  0  0  0  0
   24.0900   28.9500    9.9300 H   0  0  0  0  0  0  0  0  0  0  0  0
   25.6400   29.5800    9.2200 H   0  0  0  0  0  0  0  0  0  0  0  0
   24.1600   30.2300    8.6500 H   0  0  0  0  0  0  0  0  0  0  0  0
   26.3700   24.6500    9.0000 H   0  0  0  0  0  0  0  0  0  0  0  0
   26.0200   25.5600   10.4400 H   0  0  0  0  0  0  0  0  0  0  0  0
   27.6500   25.5200    9.9600 H   0  0  0  0  0  0  0  0  0  0  0  0
   23.4300   20.2900    7.4200 H   0  0  0  0  0  0  0  0  0  0  0  0
   20.9800   26.2300   12.6100 H   0  0  0  0  0  0  0  0  0  0  0  0
   25.2700   26.8500   12.7900 H   0  0  0  0  0  0  0  0  0  0  0  0
   20.8300   26.4900   14.9400 H   0  0  0  0  0  0  0  0  0  0  0  0
   25.1100   27.0500   15.1100 H   0  0  0  0  0  0  0  0  0  0  0  0
   22.9300   26.9200   16.4000 H   0  0  0  0  0  0  0  0  0  0  0  0
  1  5  1  0  0  0  0
  1  7  1  0  0  0  0
  1  8  1  0  0  0  0
  2  6  1  0  0  0  0
  2 11  1  0  0  0  0
  2 12  1  0  0  0  0
  3  7  1  0  0  0  0
  3  9  1  0  0  0  0
  4 16  1  0  0  0  0
  4 25  1  0  0  0  0
  4 26  1  0  0  0  0
  5  6  1  0  0  0  0
  5 27  1  0  0  0  0
  5 28  1  0  0  0  0
  6 29  1  0  0  0  0
  6 30  1  0  0  0  0
  7 10  1  0  0  0  0
  8  9  1  0  0  0  0
  8 13  1  0  0  0  0
  9 14  1  0  0  0  0
 10 15  1  0  0  0  0
 10 31  1  0  0  0  0
 10 32  1  0  0  0  0
 11 17  1  0  0  0  0
 11 33  1  0  0  0  0
 11 34  1  0  0  0  0
 12 18  1  0  0  0  0
 12 35  1  0  0  0  0
 12 36  1  0  0  0  0
 13 19  1  0  0  0  0
 13 37  1  0  0  0  0
 14 16  1  0  0  0  0
 14 38  1  0  0  0  0
 15 20  1  0  0  0  0
 15 21  1  0  0  0  0
 16 19  1  0  0  0  0
 17 39  1  0  0  0  0
 17 40  1  0  0  0  0
 17 41  1  0  0  0  0
 18 42  1  0  0  0  0
 18 43  1  0  0  0  0
 18 44  1  0  0  0  0
 19 45  1  0  0  0  0
 20 22  1  0  0  0  0
 20 46  1  0  0  0  0
 21 23  1  0  0  0  0
 21 47  1  0  0  0  0
 22 24  1  0  0  0  0
 22 48  1  0  0  0  0
 23 24  1  0  0  0  0
 23 49  1  0  0  0  0
 24 50  1  0  0  0  0
M  END
$$$$
Nit_dihe
  PyMOL2.3          3D                             0

 50 52  0  0  0  0  0  0  0  0999 V2000
   26.4900   25.8400   12.3000 N   0  0  0  0  0  0  0  0  0  0  0  0
   25.8400   22.3600   13.6300 N   0  0  0  0  0  0  0  0  0  0  0  0
   25.5300   27.7400   11.5200 N   0  0  0  0  0  0  0  0  0  0  0  0
   28.4900   27.5700    7.4000 N   0  0  0  0  0  0  0  0  0  0  0  0
   26.6800   24.6700   13.2300 C   0  0  0  0  0  0  0  0  0  0  0  0
   25.8900   23.4800   12.6400 C   0  0  0  0  0  0  0  0  0  0  0  0
   25.5700   26.9000   12.5300 C   0  0  0  0  0  0  0  0  0  0  0  0
   27.1000   26.1000   11.0800 C   0  0  0  0  0  0  0  0  0  0  0  0
   26.5000   27.2600   10.6000 C   0  0  0  0  0  0  0  0  0  0  0  0
   24.7500   27.1400   13.8000 C   0  0  0  0  0  0  0  0  0  0  0  0
   27.1100   21.9200   14.3000 C   0  0  0  0  0  0  0  0  0  0  0  0
   24.6000   22.1400   14.4400 C   0  0  0  0  0  0  0  0  0  0  0  0
   28.0000   25.3600   10.3500 C   0  0  0  0  0  0  0  0  0  0  0  0
   26.9700   27.7600    9.4000 C   0  0  0  0  0  0  0  0  0  0  0  0
   23.3000   26.6200   13.6100 C   0  0  0  0  0  0  0  0  0  0  0  0
   27.9500   27.0400    8.6200 C   0  0  0  0  0  0  0  0  0  0  0  0
   28.1100   21.2500   13.3000 C   0  0  0  0  0  0  0  0  0  0  0  0
   24.4900   22.9800   15.6600 C   0  0  0  0  0  0  0  0  0  0  0  0
   28.4700   25.7900    9.1400 C   0  0  0  0  0  0  0  0  0  0  0  0
   22.8100   26.0900   12.3900 C   0  0  0  0  0  0  0  0  0  0  0  0
   22.4000   26.7500   14.7100 C   0  0  0  0  0  0  0  0  0  0  0  0
   21.4900   25.6100   12.3100 C   0  0  0  0  0  0  0  0  0  0  0  0
   21.0700   26.3200   14.5700 C   0  0  0  0  0  0  0  0  0  0  0  0
   20.5900   25.7600   13.4000 C   0  0  0  0  0  0  0  0  0  0  0  0
   27.9800   28.5600    6.8200 O   0  0  0  0  0  0  0  0  0  0  0  0
   29.4700   26.9300    7.0400 O   0  0  0  0  0  0  0  0  0  0  0  0
   26.2800   24.7700   14.2500 H   0  0  0  0  0  0  0  0  0  0  0  0
   27.7600   24.5500   13.3400 H   0  0  0  0  0  0  0  0  0  0  0  0
   24.9200   23.8800   12.3500 H   0  0  0  0  0  0  0  0  0  0  0  0
   26.4100   23.1800   11.7200 H   0  0  0  0  0  0  0  0  0  0  0  0
   25.2300   26.7000   14.6800 H   0  0  0  0  0  0  0  0  0  0  0  0
   24.7000   28.2300   13.9200 H   0  0  0  0  0  0  0  0  0  0  0  0
   26.8000   21.2100   15.0700 H   0  0  0  0  0  0  0  0  0  0  0  0
   27.7100   22.6700   14.8200 H   0  0  0  0  0  0  0  0  0  0  0  0
   24.5300   21.1200   14.8300 H   0  0  0  0  0  0  0  0  0  0  0  0
   23.7200   22.3400   13.8200 H   0  0  0  0  0  0  0  0  0  0  0  0
   28.4100   24.4500   10.7800 H   0  0  0  0  0  0  0  0  0  0  0  0
   26.4900   28.6800    9.1100 H   0  0  0  0  0  0  0  0  0  0  0  0
   28.2600   21.9600   12.4700 H   0  0  0  0  0  0  0  0  0  0  0  0
   29.0600   21.0200   13.8000 H   0  0  0  0  0  0  0  0  0  0  0  0
   27.6300   20.3500   12.9300 H   0  0  0  0  0  0  0  0  0  0  0  0
   24.2600   24.0200   15.4000 H   0  0  0  0  0  0  0  0  0  0  0  0
   25.3800   23.0200   16.3000 H   0  0  0  0  0  0  0  0  0  0  0  0
   23.6700   22.6000   16.2700 H   0  0  0  0  0  0  0  0  0  0  0  0
   29.1600   25.1700    8.5800 H   0  0  0  0  0  0  0  0  0  0  0  0
   23.3900   25.9800   11.4800 H   0  0  0  0  0  0  0  0  0  0  0  0
   22.7000   27.0000   15.7300 H   0  0  0  0  0  0  0  0  0  0  0  0
   21.1500   25.2000   11.3600 H   0  0  0  0  0  0  0  0  0  0  0  0
   20.4200   26.4400   15.4400 H   0  0  0  0  0  0  0  0  0  0  0  0
   19.5600   25.4300   13.5000 H   0  0  0  0  0  0  0  0  0  0  0  0
  1  5  1  0  0  0  0
  1  7  1  0  0  0  0
  1  8  1  0  0  0  0
  2  6  1  0  0  0  0
  2 11  1  0  0  0  0
  2 12  1  0  0  0  0
  3  7  1  0  0  0  0
  3  9  1  0  0  0  0
  4 16  1  0  0  0  0
  4 25  1  0  0  0  0
  4 26  1  0  0  0  0
  5  6  1  0  0  0  0
  5 27  1  0  0  0  0
  5 28  1  0  0  0  0
  6 29  1  0  0  0  0
  6 30  1  0  0  0  0
  7 10  1  0  0  0  0
  8  9  1  0  0  0  0
  8 13  1  0  0  0  0
  9 14  1  0  0  0  0
 10 15  1  0  0  0  0
 10 31  1  0  0  0  0
 10 32  1  0  0  0  0
 11 17  1  0  0  0  0
 11 33  1  0  0  0  0
 11 34  1  0  0  0  0
 12 18  1  0  0  0  0
 12 35  1  0  0  0  0
 12 36  1  0  0  0  0
 13 19  1  0  0  0  0
 13 37  1  0  0  0  0
 14 16  1  0  0  0  0
 14 38  1  0  0  0  0
 15 20  1  0  0  0  0
 15 21  1  0  0  0  0
 16 19  1  0  0  0  0
 17 39  1  0  0  0  0
 17 40  1  0  0  0  0
 17 41  1  0  0  0  0
 18 42  1  0  0  0  0
 18 43  1  0  0  0  0
 18 44  1  0  0  0  0
 19 45  1  0  0  0  0
 20 22  1  0  0  0  0
 20 46  1  0  0  0  0
 21 23  1  0  0  0  0
 21 47  1  0  0  0  0
 22 24  1  0  0  0  0
 22 48  1  0  0  0  0
 23 24  1  0  0  0  0
 23 49  1  0  0  0  0
 24 50  1  0  0  0  0
M  END
$$$$
Nit_dihe
  PyMOL2.3          3D                             0

 50 52  0  0  0  0  0  0  0  0999 V2000
   24.0300   23.9700   12.3600 N   0  0  0  0  0  0  0  0  0  0  0  0
   25.0900   24.7700    8.8400 N   0  0  0  0  0  0  0  0  0  0  0  0
   22.7400   24.0700   14.2300 N   0  0  0  0  0  0  0  0  0  0  0  0
   23.6100   19.2600   15.3100 N   0  0  0  0  0  0  0  0  0  0  0  0
   24.8500   24.4600   11.1600 C   0  0  0  0  0  0  0  0  0  0  0  0
   24.1300   24.3600    9.8700 C   0  0  0  0  0  0  0  0  0  0  0  0
   23.2000   24.7000   13.1800 C   0  0  0  0  0  0  0  0  0  0  0  0
   24.0100   22.6800   12.9000 C   0  0  0  0  0  0  0  0  0  0  0  0
   23.2800   22.7800   14.0800 C   0  0  0  0  0  0  0  0  0  0  0  0
   22.7800   26.1300   13.1100 C   0  0  0  0  0  0  0  0  0  0  0  0
   25.8800   26.0200    9.0600 C   0  0  0  0  0  0  0  0  0  0  0  0
   25.7700   23.5800    8.2200 C   0  0  0  0  0  0  0  0  0  0  0  0
   24.5000   21.4600   12.4500 C   0  0  0  0  0  0  0  0  0  0  0  0
   23.0700   21.6200   14.8300 C   0  0  0  0  0  0  0  0  0  0  0  0
   23.7200   27.1300   13.8400 C   0  0  0  0  0  0  0  0  0  0  0  0
   23.6400   20.3900   14.4500 C   0  0  0  0  0  0  0  0  0  0  0  0
   26.3200   26.6300    7.6900 C   0  0  0  0  0  0  0  0  0  0  0  0
   24.8500   22.5900    7.4600 C   0  0  0  0  0  0  0  0  0  0  0  0
   24.3500   20.3000   13.2700 C   0  0  0  0  0  0  0  0  0  0  0  0
   23.5300   28.5100   13.7000 C   0  0  0  0  0  0  0  0  0  0  0  0
   24.9200   26.7800   14.4500 C   0  0  0  0  0  0  0  0  0  0  0  0
   24.2700   29.4300   14.4100 C   0  0  0  0  0  0  0  0  0  0  0  0
   25.7100   27.6900   15.1800 C   0  0  0  0  0  0  0  0  0  0  0  0
   25.3800   29.0300   15.1400 C   0  0  0  0  0  0  0  0  0  0  0  0
   22.8800   19.2800   16.2900 O   0  0  0  0  0  0  0  0  0  0  0  0
   24.2000   18.2600   15.0300 O   0  0  0  0  0  0  0  0  0  0  0  0
   25.7900   23.9100   11.2200 H   0  0  0  0  0  0  0  0  0  0  0  0
   25.1100   25.5100   11.3400 H   0  0  0  0  0  0  0  0  0  0  0  0
   23.7200   23.3400    9.8000 H   0  0  0  0  0  0  0  0  0  0  0  0
   23.2600   25.0100    9.7900 H   0  0  0  0  0  0  0  0  0  0  0  0
   22.7900   26.3600   12.0400 H   0  0  0  0  0  0  0  0  0  0  0  0
   21.7600   26.3400   13.4400 H   0  0  0  0  0  0  0  0  0  0  0  0
   26.7300   25.7300    9.6900 H   0  0  0  0  0  0  0  0  0  0  0  0
   25.2900   26.8100    9.5400 H   0  0  0  0  0  0  0  0  0  0  0  0
   26.2900   22.9300    8.9300 H   0  0  0  0  0  0  0  0  0  0  0  0
   26.4800   23.9600    7.4700 H   0  0  0  0  0  0  0  0  0  0  0  0
   25.0900   21.3800   11.5400 H   0  0  0  0  0  0  0  0  0  0  0  0
   22.5000   21.7400   15.7400 H   0  0  0  0  0  0  0  0  0  0  0  0
   27.0000   26.0100    7.1000 H   0  0  0  0  0  0  0  0  0  0  0  0
   25.5300   26.8100    6.9500 H   0  0  0  0  0  0  0  0  0  0  0  0
   26.7800   27.6100    7.8500 H   0  0  0  0  0  0  0  0  0  0  0  0
   25.5100   21.8400    7.0300 H   0  0  0  0  0  0  0  0  0  0  0  0
   24.2200   23.0600    6.6900 H   0  0  0  0  0  0  0  0  0  0  0  0
   24.1900   22.1700    8.2300 H   0  0  0  0  0  0  0  0  0  0  0  0
   24.9000   19.4400   12.9000 H   0  0  0  0  0  0  0  0  0  0  0  0
   22.7700   28.9100   13.0500 H   0  0  0  0  0  0  0  0  0  0  0  0
   25.1900   25.7300   14.5000 H   0  0  0  0  0  0  0  0  0  0  0  0
   24.1400   30.5100   14.3500 H   0  0  0  0  0  0  0  0  0  0  0  0
   26.5600   27.2700   15.7100 H   0  0  0  0  0  0  0  0  0  0  0  0
   25.9700   29.7700   15.6700 H   0  0  0  0  0  0  0  0  0  0  0  0
  1  5  1  0  0  0  0
  1  7  1  0  0  0  0
  1  8  1  0  0  0  0
  2  6  1  0  0  0  0
  2 11  1  0  0  0  0
  2 12  1  0  0  0  0
  3  7  1  0  0  0  0
  3  9  1  0  0  0  0
  4 16  1  0  0  0  0
  4 25  1  0  0  0  0
  4 26  1  0  0  0  0
  5  6  1  0  0  0  0
  5 27  1  0  0  0  0
  5 28  1  0  0  0  0
  6 29  1  0  0  0  0
  6 30  1  0  0  0  0
  7 10  1  0  0  0  0
  8  9  1  0  0  0  0
  8 13  1  0  0  0  0
  9 14  1  0  0  0  0
 10 15  1  0  0  0  0
 10 31  1  0  0  0  0
 10 32  1  0  0  0  0
 11 17  1  0  0  0  0
 11 33  1  0  0  0  0
 11 34  1  0  0  0  0
 12 18  1  0  0  0  0
 12 35  1  0  0  0  0
 12 36  1  0  0  0  0
 13 19  1  0  0  0  0
 13 37  1  0  0  0  0
 14 16  1  0  0  0  0
 14 38  1  0  0  0  0
 15 20  1  0  0  0  0
 15 21  1  0  0  0  0
 16 19  1  0  0  0  0
 17 39  1  0  0  0  0
 17 40  1  0  0  0  0
 17 41  1  0  0  0  0
 18 42  1  0  0  0  0
 18 43  1  0  0  0  0
 18 44  1  0  0  0  0
 19 45  1  0  0  0  0
 20 22  1  0  0  0  0
 20 46  1  0  0  0  0
 21 23  1  0  0  0  0
 21 47  1  0  0  0  0
 22 24  1  0  0  0  0
 22 48  1  0  0  0  0
 23 24  1  0  0  0  0
 23 49  1  0  0  0  0
 24 50  1  0  0  0  0
M  END
$$$$
Nit_dihe
  PyMOL2.3          3D                             0

 50 52  0  0  0  0  0  0  0  0999 V2000
   23.0800   24.5600   11.3500 N   0  0  0  0  0  0  0  0  0  0  0  0
   23.4600   27.9300    9.6200 N   0  0  0  0  0  0  0  0  0  0  0  0
   23.9700   22.5400   11.7500 N   0  0  0  0  0  0  0  0  0  0  0  0
   20.5800   20.2400    9.0200 N   0  0  0  0  0  0  0  0  0  0  0  0
   23.0000   26.0500   11.2300 C   0  0  0  0  0  0  0  0  0  0  0  0
   23.9200   26.6200   10.1100 C   0  0  0  0  0  0  0  0  0  0  0  0
   23.9600   23.8000   12.0700 C   0  0  0  0  0  0  0  0  0  0  0  0
   22.3700   23.6700   10.5800 C   0  0  0  0  0  0  0  0  0  0  0  0
   22.9200   22.4200   10.8700 C   0  0  0  0  0  0  0  0  0  0  0  0
   24.9300   24.4000   13.1000 C   0  0  0  0  0  0  0  0  0  0  0  0
   22.2600   27.7700    8.7500 C   0  0  0  0  0  0  0  0  0  0  0  0
   24.6200   28.6400    9.0200 C   0  0  0  0  0  0  0  0  0  0  0  0
   21.3800   23.7700    9.7200 C   0  0  0  0  0  0  0  0  0  0  0  0
   22.3500   21.2300   10.3900 C   0  0  0  0  0  0  0  0  0  0  0  0
   25.8800   23.3700   13.7000 C   0  0  0  0  0  0  0  0  0  0  0  0
   21.2500   21.3500    9.5700 C   0  0  0  0  0  0  0  0  0  0  0  0
   21.5800   29.0600    8.4600 C   0  0  0  0  0  0  0  0  0  0  0  0
   25.1300   28.0900    7.7400 C   0  0  0  0  0  0  0  0  0  0  0  0
   20.7900   22.6200    9.2500 C   0  0  0  0  0  0  0  0  0  0  0  0
   27.1800   23.2500   13.3200 C   0  0  0  0  0  0  0  0  0  0  0  0
   25.2600   22.5500   14.6500 C   0  0  0  0  0  0  0  0  0  0  0  0
   27.9900   22.3200   13.9700 C   0  0  0  0  0  0  0  0  0  0  0  0
   26.0900   21.6600   15.3400 C   0  0  0  0  0  0  0  0  0  0  0  0
   27.4400   21.5700   15.0100 C   0  0  0  0  0  0  0  0  0  0  0  0
   20.1000   20.3000    7.9000 O   0  0  0  0  0  0  0  0  0  0  0  0
   20.5800   19.2300    9.6800 O   0  0  0  0  0  0  0  0  0  0  0  0
   23.2300   26.4900   12.2000 H   0  0  0  0  0  0  0  0  0  0  0  0
   21.9600   26.2900   10.9900 H   0  0  0  0  0  0  0  0  0  0  0  0
   24.9600   26.8000   10.4100 H   0  0  0  0  0  0  0  0  0  0  0  0
   24.0600   25.8400    9.3500 H   0  0  0  0  0  0  0  0  0  0  0  0
   25.5300   25.1500   12.5800 H   0  0  0  0  0  0  0  0  0  0  0  0
   24.4500   24.9000   13.9500 H   0  0  0  0  0  0  0  0  0  0  0  0
   21.5000   27.1300    9.2100 H   0  0  0  0  0  0  0  0  0  0  0  0
   22.4900   27.3100    7.7800 H   0  0  0  0  0  0  0  0  0  0  0  0
   25.4500   28.8200    9.7100 H   0  0  0  0  0  0  0  0  0  0  0  0
   24.2800   29.6700    8.8700 H   0  0  0  0  0  0  0  0  0  0  0  0
   21.0500   24.7500    9.3900 H   0  0  0  0  0  0  0  0  0  0  0  0
   22.6600   20.2800   10.8100 H   0  0  0  0  0  0  0  0  0  0  0  0
   21.1600   29.5700    9.3400 H   0  0  0  0  0  0  0  0  0  0  0  0
   22.3100   29.7400    8.0100 H   0  0  0  0  0  0  0  0  0  0  0  0
   20.8100   28.9000    7.7000 H   0  0  0  0  0  0  0  0  0  0  0  0
   25.5600   27.0900    7.8400 H   0  0  0  0  0  0  0  0  0  0  0  0
   25.9100   28.7900    7.4300 H   0  0  0  0  0  0  0  0  0  0  0  0
   24.2800   28.0300    7.0500 H   0  0  0  0  0  0  0  0  0  0  0  0
   19.9500   22.7100    8.5700 H   0  0  0  0  0  0  0  0  0  0  0  0
   27.6100   23.8300   12.5200 H   0  0  0  0  0  0  0  0  0  0  0  0
   24.2000   22.4900   14.8800 H   0  0  0  0  0  0  0  0  0  0  0  0
   29.0200   22.1100   13.7000 H   0  0  0  0  0  0  0  0  0  0  0  0
   25.6300   20.9600   16.0400 H   0  0  0  0  0  0  0  0  0  0  0  0
   28.0700   20.8300   15.5000 H   0  0  0  0  0  0  0  0  0  0  0  0
  1  5  1  0  0  0  0
  1  7  1  0  0  0  0
  1  8  1  0  0  0  0
  2  6  1  0  0  0  0
  2 11  1  0  0  0  0
  2 12  1  0  0  0  0
  3  7  1  0  0  0  0
  3  9  1  0  0  0  0
  4 16  1  0  0  0  0
  4 25  1  0  0  0  0
  4 26  1  0  0  0  0
  5  6  1  0  0  0  0
  5 27  1  0  0  0  0
  5 28  1  0  0  0  0
  6 29  1  0  0  0  0
  6 30  1  0  0  0  0
  7 10  1  0  0  0  0
  8  9  1  0  0  0  0
  8 13  1  0  0  0  0
  9 14  1  0  0  0  0
 10 15  1  0  0  0  0
 10 31  1  0  0  0  0
 10 32  1  0  0  0  0
 11 17  1  0  0  0  0
 11 33  1  0  0  0  0
 11 34  1  0  0  0  0
 12 18  1  0  0  0  0
 12 35  1  0  0  0  0
 12 36  1  0  0  0  0
 13 19  1  0  0  0  0
 13 37  1  0  0  0  0
 14 16  1  0  0  0  0
 14 38  1  0  0  0  0
 15 20  1  0  0  0  0
 15 21  1  0  0  0  0
 16 19  1  0  0  0  0
 17 39  1  0  0  0  0
 17 40  1  0  0  0  0
 17 41  1  0  0  0  0
 18 42  1  0  0  0  0
 18 43  1  0  0  0  0
 18 44  1  0  0  0  0
 19 45  1  0  0  0  0
 20 22  1  0  0  0  0
 20 46  1  0  0  0  0
 21 23  1  0  0  0  0
 21 47  1  0  0  0  0
 22 24  1  0  0  0  0
 22 48  1  0  0  0  0
 23 24  1  0  0  0  0
 23 49  1  0  0  0  0
 24 50  1  0  0  0  0
M  END
$$$$
Nit_dihe
  PyMOL2.3          3D                             0

 50 52  0  0  0  0  0  0  0  0999 V2000
   23.5800   23.3500   12.1500 N   0  0  0  0  0  0  0  0  0  0  0  0
   26.6000   23.9900    9.8700 N   0  0  0  0  0  0  0  0  0  0  0  0
   22.2400   22.7300   13.9800 N   0  0  0  0  0  0  0  0  0  0  0  0
   19.8200   27.0500   14.2000 N   0  0  0  0  0  0  0  0  0  0  0  0
   24.5000   23.1800   11.0400 C   0  0  0  0  0  0  0  0  0  0  0  0
   25.9100   23.8500   11.1600 C   0  0  0  0  0  0  0  0  0  0  0  0
   23.2900   22.4400   13.2300 C   0  0  0  0  0  0  0  0  0  0  0  0
   22.5900   24.3500   12.3800 C   0  0  0  0  0  0  0  0  0  0  0  0
   21.9000   24.0300   13.5600 C   0  0  0  0  0  0  0  0  0  0  0  0
   23.9700   21.0600   13.5700 C   0  0  0  0  0  0  0  0  0  0  0  0
   27.3300   22.8600    9.3800 C   0  0  0  0  0  0  0  0  0  0  0  0
   26.1500   25.0300    8.8900 C   0  0  0  0  0  0  0  0  0  0  0  0
   22.2600   25.5000   11.7100 C   0  0  0  0  0  0  0  0  0  0  0  0
   20.9500   24.9100   14.0700 C   0  0  0  0  0  0  0  0  0  0  0  0
   25.4300   21.2600   13.6400 C   0  0  0  0  0  0  0  0  0  0  0  0
   20.7600   26.2100   13.5300 C   0  0  0  0  0  0  0  0  0  0  0  0
   26.7400   22.1300    8.1900 C   0  0  0  0  0  0  0  0  0  0  0  0
   27.3700   25.7700    8.3000 C   0  0  0  0  0  0  0  0  0  0  0  0
   21.4500   26.4800   12.3200 C   0  0  0  0  0  0  0  0  0  0  0  0
   26.2000   20.6000   12.6700 C   0  0  0  0  0  0  0  0  0  0  0  0
   26.1200   21.8400   14.6900 C   0  0  0  0  0  0  0  0  0  0  0  0
   27.5700   20.6300   12.7500 C   0  0  0  0  0  0  0  0  0  0  0  0
   27.5300   21.9300   14.7700 C   0  0  0  0  0  0  0  0  0  0  0  0
   28.2200   21.2500   13.8000 C   0  0  0  0  0  0  0  0  0  0  0  0
   19.7100   28.2400   13.7700 O   0  0  0  0  0  0  0  0  0  0  0  0
   19.1200   26.6800   15.1400 O   0  0  0  0  0  0  0  0  0  0  0  0
   24.0600   23.5600   10.1100 H   0  0  0  0  0  0  0  0  0  0  0  0
   24.6400   22.1100   10.8500 H   0  0  0  0  0  0  0  0  0  0  0  0
   25.6900   24.8200   11.6300 H   0  0  0  0  0  0  0  0  0  0  0  0
   26.5400   23.3900   11.9200 H   0  0  0  0  0  0  0  0  0  0  0  0
   23.5700   20.5900   14.4700 H   0  0  0  0  0  0  0  0  0  0  0  0
   23.7200   20.4300   12.7100 H   0  0  0  0  0  0  0  0  0  0  0  0
   27.3900   22.1500   10.2100 H   0  0  0  0  0  0  0  0  0  0  0  0
   28.3400   23.2100    9.1200 H   0  0  0  0  0  0  0  0  0  0  0  0
   25.6200   25.8400    9.4000 H   0  0  0  0  0  0  0  0  0  0  0  0
   25.4700   24.6200    8.1400 H   0  0  0  0  0  0  0  0  0  0  0  0
   22.6500   25.7700   10.7300 H   0  0  0  0  0  0  0  0  0  0  0  0
   20.5100   24.6900   15.0400 H   0  0  0  0  0  0  0  0  0  0  0  0
   26.7700   22.7600    7.2900 H   0  0  0  0  0  0  0  0  0  0  0  0
   27.3000   21.2000    8.0400 H   0  0  0  0  0  0  0  0  0  0  0  0
   25.7300   21.8300    8.4700 H   0  0  0  0  0  0  0  0  0  0  0  0
   27.9200   26.2600    9.1100 H   0  0  0  0  0  0  0  0  0  0  0  0
   26.9600   26.4800    7.5800 H   0  0  0  0  0  0  0  0  0  0  0  0
   28.0200   25.1300    7.7000 H   0  0  0  0  0  0  0  0  0  0  0  0
   21.1700   27.3900   11.7900 H   0  0  0  0  0  0  0  0  0  0  0  0
   25.6400   20.2600   11.8000 H   0  0  0  0  0  0  0  0  0  0  0  0
   25.5700   22.3300   15.4900 H   0  0  0  0  0  0  0  0  0  0  0  0
   28.1300   20.1900   11.9300 H   0  0  0  0  0  0  0  0  0  0  0  0
   28.1500   22.3900   15.5300 H   0  0  0  0  0  0  0  0  0  0  0  0
   29.3000   21.3500   13.8600 H   0  0  0  0  0  0  0  0  0  0  0  0
  1  5  1  0  0  0  0
  1  7  1  0  0  0  0
  1  8  1  0  0  0  0
  2  6  1  0  0  0  0
  2 11  1  0  0  0  0
  2 12  1  0  0  0  0
  3  7  1  0  0  0  0
  3  9  1  0  0  0  0
  4 16  1  0  0  0  0
  4 25  1  0  0  0  0
  4 26  1  0  0  0  0
  5  6  1  0  0  0  0
  5 27  1  0  0  0  0
  5 28  1  0  0  0  0
  6 29  1  0  0  0  0
  6 30  1  0  0  0  0
  7 10  1  0  0  0  0
  8  9  1  0  0  0  0
  8 13  1  0  0  0  0
  9 14  1  0  0  0  0
 10 15  1  0  0  0  0
 10 31  1  0  0  0  0
 10 32  1  0  0  0  0
 11 17  1  0  0  0  0
 11 33  1  0  0  0  0
 11 34  1  0  0  0  0
 12 18  1  0  0  0  0
 12 35  1  0  0  0  0
 12 36  1  0  0  0  0
 13 19  1  0  0  0  0
 13 37  1  0  0  0  0
 14 16  1  0  0  0  0
 14 38  1  0  0  0  0
 15 20  1  0  0  0  0
 15 21  1  0  0  0  0
 16 19  1  0  0  0  0
 17 39  1  0  0  0  0
 17 40  1  0  0  0  0
 17 41  1  0  0  0  0
 18 42  1  0  0  0  0
 18 43  1  0  0  0  0
 18 44  1  0  0  0  0
 19 45  1  0  0  0  0
 20 22  1  0  0  0  0
 20 46  1  0  0  0  0
 21 23  1  0  0  0  0
 21 47  1  0  0  0  0
 22 24  1  0  0  0  0
 22 48  1  0  0  0  0
 23 24  1  0  0  0  0
 23 49  1  0  0  0  0
 24 50  1  0  0  0  0
M  END
$$$$
Nit_dihe
  PyMOL2.3          3D                             0

 50 52  0  0  0  0  0  0  0  0999 V2000
   23.2200   23.3900   11.2800 N   0  0  0  0  0  0  0  0  0  0  0  0
   26.5500   25.3300   10.9200 N   0  0  0  0  0  0  0  0  0  0  0  0
   22.3800   21.3200   10.9700 N   0  0  0  0  0  0  0  0  0  0  0  0
   20.1500   22.5100    6.6900 N   0  0  0  0  0  0  0  0  0  0  0  0
   24.2600   24.4100   11.7300 C   0  0  0  0  0  0  0  0  0  0  0  0
   25.5100   24.2500   10.8600 C   0  0  0  0  0  0  0  0  0  0  0  0
   23.0400   22.0800   11.7900 C   0  0  0  0  0  0  0  0  0  0  0  0
   22.4800   23.3900   10.0300 C   0  0  0  0  0  0  0  0  0  0  0  0
   22.0100   22.1100    9.8700 C   0  0  0  0  0  0  0  0  0  0  0  0
   23.6000   21.4900   13.0300 C   0  0  0  0  0  0  0  0  0  0  0  0
   27.3200   25.5800   12.1300 C   0  0  0  0  0  0  0  0  0  0  0  0
   26.0300   26.5300   10.2300 C   0  0  0  0  0  0  0  0  0  0  0  0
   22.1800   24.4400    9.1700 C   0  0  0  0  0  0  0  0  0  0  0  0
   21.2300   21.8000    8.7500 C   0  0  0  0  0  0  0  0  0  0  0  0
   23.2000   22.3100   14.2000 C   0  0  0  0  0  0  0  0  0  0  0  0
   20.9400   22.8600    7.8200 C   0  0  0  0  0  0  0  0  0  0  0  0
   28.5000   24.6300   12.3700 C   0  0  0  0  0  0  0  0  0  0  0  0
   26.9300   27.3400    9.3200 C   0  0  0  0  0  0  0  0  0  0  0  0
   21.4700   24.1700    8.0500 C   0  0  0  0  0  0  0  0  0  0  0  0
   21.8400   22.2600   14.7300 C   0  0  0  0  0  0  0  0  0  0  0  0
   24.1200   23.1700   14.8800 C   0  0  0  0  0  0  0  0  0  0  0  0
   21.4500   23.0300   15.8700 C   0  0  0  0  0  0  0  0  0  0  0  0
   23.6600   23.9800   15.9400 C   0  0  0  0  0  0  0  0  0  0  0  0
   22.4000   23.8500   16.4600 C   0  0  0  0  0  0  0  0  0  0  0  0
   19.6300   21.4200    6.6300 O   0  0  0  0  0  0  0  0  0  0  0  0
   20.0200   23.3500    5.8000 O   0  0  0  0  0  0  0  0  0  0  0  0
   24.4300   24.1100   12.7700 H   0  0  0  0  0  0  0  0  0  0  0  0
   23.8900   25.4400   11.6500 H   0  0  0  0  0  0  0  0  0  0  0  0
   25.9500   23.2700   11.0700 H   0  0  0  0  0  0  0  0  0  0  0  0
   25.2100   24.2400    9.8100 H   0  0  0  0  0  0  0  0  0  0  0  0
   23.2500   20.4800   13.2500 H   0  0  0  0  0  0  0  0  0  0  0  0
   24.7000   21.5000   12.9400 H   0  0  0  0  0  0  0  0  0  0  0  0
   26.6400   25.4200   12.9700 H   0  0  0  0  0  0  0  0  0  0  0  0
   27.7000   26.6000   12.1100 H   0  0  0  0  0  0  0  0  0  0  0  0
   25.6700   27.1200   11.0800 H   0  0  0  0  0  0  0  0  0  0  0  0
   25.1300   26.3500    9.6400 H   0  0  0  0  0  0  0  0  0  0  0  0
   22.6300   25.4000    9.4100 H   0  0  0  0  0  0  0  0  0  0  0  0
   20.9400   20.7600    8.6500 H   0  0  0  0  0  0  0  0  0  0  0  0
   29.2300   25.0500   13.0600 H   0  0  0  0  0  0  0  0  0  0  0  0
   28.1000   23.6500   12.6700 H   0  0  0  0  0  0  0  0  0  0  0  0
   29.0500   24.5100   11.4300 H   0  0  0  0  0  0  0  0  0  0  0  0
   26.6000   28.3800    9.2100 H   0  0  0  0  0  0  0  0  0  0  0  0
   26.9100   26.8600    8.3400 H   0  0  0  0  0  0  0  0  0  0  0  0
   27.9600   27.3100    9.7100 H   0  0  0  0  0  0  0  0  0  0  0  0
   21.2900   24.9300    7.2900 H   0  0  0  0  0  0  0  0  0  0  0  0
   21.1500   21.5800   14.2600 H   0  0  0  0  0  0  0  0  0  0  0  0
   25.1600   23.2900   14.6200 H   0  0  0  0  0  0  0  0  0  0  0  0
   20.4200   23.0600   16.2200 H   0  0  0  0  0  0  0  0  0  0  0  0
   24.2700   24.7700   16.3600 H   0  0  0  0  0  0  0  0  0  0  0  0
   22.0300   24.5100   17.2400 H   0  0  0  0  0  0  0  0  0  0  0  0
  1  5  1  0  0  0  0
  1  7  1  0  0  0  0
  1  8  1  0  0  0  0
  2  6  1  0  0  0  0
  2 11  1  0  0  0  0
  2 12  1  0  0  0  0
  3  7  1  0  0  0  0
  3  9  1  0  0  0  0
  4 16  1  0  0  0  0
  4 25  1  0  0  0  0
  4 26  1  0  0  0  0
  5  6  1  0  0  0  0
  5 27  1  0  0  0  0
  5 28  1  0  0  0  0
  6 29  1  0  0  0  0
  6 30  1  0  0  0  0
  7 10  1  0  0  0  0
  8  9  1  0  0  0  0
  8 13  1  0  0  0  0
  9 14  1  0  0  0  0
 10 15  1  0  0  0  0
 10 31  1  0  0  0  0
 10 32  1  0  0  0  0
 11 17  1  0  0  0  0
 11 33  1  0  0  0  0
 11 34  1  0  0  0  0
 12 18  1  0  0  0  0
 12 35  1  0  0  0  0
 12 36  1  0  0  0  0
 13 19  1  0  0  0  0
 13 37  1  0  0  0  0
 14 16  1  0  0  0  0
 14 38  1  0  0  0  0
 15 20  1  0  0  0  0
 15 21  1  0  0  0  0
 16 19  1  0  0  0  0
 17 39  1  0  0  0  0
 17 40  1  0  0  0  0
 17 41  1  0  0  0  0
 18 42  1  0  0  0  0
 18 43  1  0  0  0  0
 18 44  1  0  0  0  0
 19 45  1  0  0  0  0
 20 22  1  0  0  0  0
 20 46  1  0  0  0  0
 21 23  1  0  0  0  0
 21 47  1  0  0  0  0
 22 24  1  0  0  0  0
 22 48  1  0  0  0  0
 23 24  1  0  0  0  0
 23 49  1  0  0  0  0
 24 50  1  0  0  0  0
M  END
$$$$
Nit_dihe
  PyMOL2.3          3D                             0

 50 52  0  0  0  0  0  0  0  0999 V2000
   23.1600   25.4500   10.6100 N   0  0  0  0  0  0  0  0  0  0  0  0
   21.1700   27.5200   12.9900 N   0  0  0  0  0  0  0  0  0  0  0  0
   24.9500   24.1400   10.3000 N   0  0  0  0  0  0  0  0  0  0  0  0
   22.3800   19.9500   10.0300 N   0  0  0  0  0  0  0  0  0  0  0  0
   22.3400   26.6100   11.0100 C   0  0  0  0  0  0  0  0  0  0  0  0
   22.1900   26.5100   12.5600 C   0  0  0  0  0  0  0  0  0  0  0  0
   24.5500   25.4300   10.4100 C   0  0  0  0  0  0  0  0  0  0  0  0
   22.7300   24.1100   10.6600 C   0  0  0  0  0  0  0  0  0  0  0  0
   23.7800   23.3800   10.3600 C   0  0  0  0  0  0  0  0  0  0  0  0
   25.3600   26.7300   10.4900 C   0  0  0  0  0  0  0  0  0  0  0  0
   21.4500   28.3200   14.2400 C   0  0  0  0  0  0  0  0  0  0  0  0
   19.7500   27.1000   12.9700 C   0  0  0  0  0  0  0  0  0  0  0  0
   21.5500   23.4700   10.8500 C   0  0  0  0  0  0  0  0  0  0  0  0
   23.7600   22.0100   10.0900 C   0  0  0  0  0  0  0  0  0  0  0  0
   26.8500   26.4900   10.3600 C   0  0  0  0  0  0  0  0  0  0  0  0
   22.5500   21.3200   10.3100 C   0  0  0  0  0  0  0  0  0  0  0  0
   22.6700   29.2300   14.0700 C   0  0  0  0  0  0  0  0  0  0  0  0
   19.3300   26.1300   14.0100 C   0  0  0  0  0  0  0  0  0  0  0  0
   21.4700   22.0900   10.7300 C   0  0  0  0  0  0  0  0  0  0  0  0
   27.5700   26.5400    9.1500 C   0  0  0  0  0  0  0  0  0  0  0  0
   27.6400   26.3500   11.5100 C   0  0  0  0  0  0  0  0  0  0  0  0
   28.8600   26.1100    9.0600 C   0  0  0  0  0  0  0  0  0  0  0  0
   29.0200   26.1100   11.4700 C   0  0  0  0  0  0  0  0  0  0  0  0
   29.5800   25.9300   10.2400 C   0  0  0  0  0  0  0  0  0  0  0  0
   21.2800   19.5100    9.8100 O   0  0  0  0  0  0  0  0  0  0  0  0
   23.4300   19.2500    9.9400 O   0  0  0  0  0  0  0  0  0  0  0  0
   21.3500   26.5400   10.5500 H   0  0  0  0  0  0  0  0  0  0  0  0
   22.8300   27.5600   10.7800 H   0  0  0  0  0  0  0  0  0  0  0  0
   21.8900   25.5000   12.8400 H   0  0  0  0  0  0  0  0  0  0  0  0
   23.1600   26.5500   13.0800 H   0  0  0  0  0  0  0  0  0  0  0  0
   25.1300   27.4000    9.6500 H   0  0  0  0  0  0  0  0  0  0  0  0
   25.1500   27.2600   11.4200 H   0  0  0  0  0  0  0  0  0  0  0  0
   21.6000   27.5700   15.0200 H   0  0  0  0  0  0  0  0  0  0  0  0
   20.6000   28.9400   14.5200 H   0  0  0  0  0  0  0  0  0  0  0  0
   19.4600   26.6800   12.0000 H   0  0  0  0  0  0  0  0  0  0  0  0
   19.1700   28.0100   13.1400 H   0  0  0  0  0  0  0  0  0  0  0  0
   20.6300   24.0100   11.0600 H   0  0  0  0  0  0  0  0  0  0  0  0
   24.7200   21.5200    9.9600 H   0  0  0  0  0  0  0  0  0  0  0  0
   22.6400   29.8700   14.9600 H   0  0  0  0  0  0  0  0  0  0  0  0
   23.5500   28.5700   14.1500 H   0  0  0  0  0  0  0  0  0  0  0  0
   22.7300   29.8500   13.1800 H   0  0  0  0  0  0  0  0  0  0  0  0
   18.9300   26.6900   14.8600 H   0  0  0  0  0  0  0  0  0  0  0  0
   20.1200   25.4800   14.3800 H   0  0  0  0  0  0  0  0  0  0  0  0
   18.5500   25.4400   13.6700 H   0  0  0  0  0  0  0  0  0  0  0  0
   20.5100   21.6700   11.0200 H   0  0  0  0  0  0  0  0  0  0  0  0
   27.0300   26.5600    8.2000 H   0  0  0  0  0  0  0  0  0  0  0  0
   27.2200   26.3200   12.5100 H   0  0  0  0  0  0  0  0  0  0  0  0
   29.3900   25.9500    8.1300 H   0  0  0  0  0  0  0  0  0  0  0  0
   29.5900   25.7900   12.3300 H   0  0  0  0  0  0  0  0  0  0  0  0
   30.5600   25.4700   10.2500 H   0  0  0  0  0  0  0  0  0  0  0  0
  1  5  1  0  0  0  0
  1  7  1  0  0  0  0
  1  8  1  0  0  0  0
  2  6  1  0  0  0  0
  2 11  1  0  0  0  0
  2 12  1  0  0  0  0
  3  7  1  0  0  0  0
  3  9  1  0  0  0  0
  4 16  1  0  0  0  0
  4 25  1  0  0  0  0
  4 26  1  0  0  0  0
  5  6  1  0  0  0  0
  5 27  1  0  0  0  0
  5 28  1  0  0  0  0
  6 29  1  0  0  0  0
  6 30  1  0  0  0  0
  7 10  1  0  0  0  0
  8  9  1  0  0  0  0
  8 13  1  0  0  0  0
  9 14  1  0  0  0  0
 10 15  1  0  0  0  0
 10 31  1  0  0  0  0
 10 32  1  0  0  0  0
 11 17  1  0  0  0  0
 11 33  1  0  0  0  0
 11 34  1  0  0  0  0
 12 18  1  0  0  0  0
 12 35  1  0  0  0  0
 12 36  1  0  0  0  0
 13 19  1  0  0  0  0
 13 37  1  0  0  0  0
 14 16  1  0  0  0  0
 14 38  1  0  0  0  0
 15 20  1  0  0  0  0
 15 21  1  0  0  0  0
 16 19  1  0  0  0  0
 17 39  1  0  0  0  0
 17 40  1  0  0  0  0
 17 41  1  0  0  0  0
 18 42  1  0  0  0  0
 18 43  1  0  0  0  0
 18 44  1  0  0  0  0
 19 45  1  0  0  0  0
 20 22  1  0  0  0  0
 20 46  1  0  0  0  0
 21 23  1  0  0  0  0
 21 47  1  0  0  0  0
 22 24  1  0  0  0  0
 22 48  1  0  0  0  0
 23 24  1  0  0  0  0
 23 49  1  0  0  0  0
 24 50  1  0  0  0  0
M  END
$$$$
Nit_dihe
  PyMOL2.3          3D                             0

 50 52  0  0  0  0  0  0  0  0999 V2000
   22.7100   24.7800   12.7200 N   0  0  0  0  0  0  0  0  0  0  0  0
   26.2800   25.9800   12.4500 N   0  0  0  0  0  0  0  0  0  0  0  0
   21.0600   23.8200   11.6300 N   0  0  0  0  0  0  0  0  0  0  0  0
   20.8700   20.0100   14.8900 N   0  0  0  0  0  0  0  0  0  0  0  0
   23.8300   25.6300   13.0700 C   0  0  0  0  0  0  0  0  0  0  0  0
   25.0000   25.2800   12.1200 C   0  0  0  0  0  0  0  0  0  0  0  0
   21.8300   24.8500   11.6100 C   0  0  0  0  0  0  0  0  0  0  0  0
   22.4700   23.6600   13.4300 C   0  0  0  0  0  0  0  0  0  0  0  0
   21.4300   23.0600   12.7300 C   0  0  0  0  0  0  0  0  0  0  0  0
   21.7200   25.9600   10.6200 C   0  0  0  0  0  0  0  0  0  0  0  0
   27.4700   25.1100   12.1200 C   0  0  0  0  0  0  0  0  0  0  0  0
   26.3900   27.4900   12.4100 C   0  0  0  0  0  0  0  0  0  0  0  0
   22.9300   23.1000   14.6300 C   0  0  0  0  0  0  0  0  0  0  0  0
   20.8700   21.9000   13.2600 C   0  0  0  0  0  0  0  0  0  0  0  0
   22.7100   25.9000    9.5100 C   0  0  0  0  0  0  0  0  0  0  0  0
   21.4400   21.2300   14.3500 C   0  0  0  0  0  0  0  0  0  0  0  0
   27.8300   25.2000   10.6400 C   0  0  0  0  0  0  0  0  0  0  0  0
   26.5900   28.0200   13.8500 C   0  0  0  0  0  0  0  0  0  0  0  0
   22.5200   21.8700   15.0100 C   0  0  0  0  0  0  0  0  0  0  0  0
   23.4400   27.0400    9.2900 C   0  0  0  0  0  0  0  0  0  0  0  0
   23.0000   24.7000    8.8600 C   0  0  0  0  0  0  0  0  0  0  0  0
   24.5100   27.0200    8.4200 C   0  0  0  0  0  0  0  0  0  0  0  0
   24.0600   24.6900    7.9300 C   0  0  0  0  0  0  0  0  0  0  0  0
   24.7900   25.8600    7.7100 C   0  0  0  0  0  0  0  0  0  0  0  0
   19.9500   19.4600   14.2100 O   0  0  0  0  0  0  0  0  0  0  0  0
   21.3200   19.5800   15.9500 O   0  0  0  0  0  0  0  0  0  0  0  0
   24.0800   25.5900   14.1300 H   0  0  0  0  0  0  0  0  0  0  0  0
   23.7100   26.7000   12.8700 H   0  0  0  0  0  0  0  0  0  0  0  0
   25.1400   24.2000   12.1200 H   0  0  0  0  0  0  0  0  0  0  0  0
   24.7800   25.5800   11.0900 H   0  0  0  0  0  0  0  0  0  0  0  0
   20.7100   25.9900   10.2100 H   0  0  0  0  0  0  0  0  0  0  0  0
   21.7100   26.9200   11.1400 H   0  0  0  0  0  0  0  0  0  0  0  0
   27.2700   24.0700   12.4000 H   0  0  0  0  0  0  0  0  0  0  0  0
   28.3100   25.3400   12.7800 H   0  0  0  0  0  0  0  0  0  0  0  0
   25.4500   27.8700   12.0200 H   0  0  0  0  0  0  0  0  0  0  0  0
   27.1700   27.8700   11.7400 H   0  0  0  0  0  0  0  0  0  0  0  0
   23.7100   23.5900   15.2100 H   0  0  0  0  0  0  0  0  0  0  0  0
   20.0200   21.4600   12.7600 H   0  0  0  0  0  0  0  0  0  0  0  0
   28.3100   26.1600   10.4500 H   0  0  0  0  0  0  0  0  0  0  0  0
   28.6200   24.5100   10.3100 H   0  0  0  0  0  0  0  0  0  0  0  0
   26.9600   25.0200   10.0100 H   0  0  0  0  0  0  0  0  0  0  0  0
   26.4800   29.1100   13.8800 H   0  0  0  0  0  0  0  0  0  0  0  0
   27.5900   27.7000   14.1400 H   0  0  0  0  0  0  0  0  0  0  0  0
   25.8000   27.6600   14.5200 H   0  0  0  0  0  0  0  0  0  0  0  0
   23.0600   21.4400   15.8400 H   0  0  0  0  0  0  0  0  0  0  0  0
   23.2900   27.9100    9.9200 H   0  0  0  0  0  0  0  0  0  0  0  0
   22.3000   23.8700    8.9700 H   0  0  0  0  0  0  0  0  0  0  0  0
   25.1000   27.9200    8.2300 H   0  0  0  0  0  0  0  0  0  0  0  0
   24.2600   23.8100    7.3200 H   0  0  0  0  0  0  0  0  0  0  0  0
   25.5600   25.9700    6.9500 H   0  0  0  0  0  0  0  0  0  0  0  0
  1  5  1  0  0  0  0
  1  7  1  0  0  0  0
  1  8  1  0  0  0  0
  2  6  1  0  0  0  0
  2 11  1  0  0  0  0
  2 12  1  0  0  0  0
  3  7  1  0  0  0  0
  3  9  1  0  0  0  0
  4 16  1  0  0  0  0
  4 25  1  0  0  0  0
  4 26  1  0  0  0  0
  5  6  1  0  0  0  0
  5 27  1  0  0  0  0
  5 28  1  0  0  0  0
  6 29  1  0  0  0  0
  6 30  1  0  0  0  0
  7 10  1  0  0  0  0
  8  9  1  0  0  0  0
  8 13  1  0  0  0  0
  9 14  1  0  0  0  0
 10 15  1  0  0  0  0
 10 31  1  0  0  0  0
 10 32  1  0  0  0  0
 11 17  1  0  0  0  0
 11 33  1  0  0  0  0
 11 34  1  0  0  0  0
 12 18  1  0  0  0  0
 12 35  1  0  0  0  0
 12 36  1  0  0  0  0
 13 19  1  0  0  0  0
 13 37  1  0  0  0  0
 14 16  1  0  0  0  0
 14 38  1  0  0  0  0
 15 20  1  0  0  0  0
 15 21  1  0  0  0  0
 16 19  1  0  0  0  0
 17 39  1  0  0  0  0
 17 40  1  0  0  0  0
 17 41  1  0  0  0  0
 18 42  1  0  0  0  0
 18 43  1  0  0  0  0
 18 44  1  0  0  0  0
 19 45  1  0  0  0  0
 20 22  1  0  0  0  0
 20 46  1  0  0  0  0
 21 23  1  0  0  0  0
 21 47  1  0  0  0  0
 22 24  1  0  0  0  0
 22 48  1  0  0  0  0
 23 24  1  0  0  0  0
 23 49  1  0  0  0  0
 24 50  1  0  0  0  0
M  END
$$$$
Nit_dihe
  PyMOL2.3          3D                             0

 50 52  0  0  0  0  0  0  0  0999 V2000
   25.2700   25.0800   10.7100 N   0  0  0  0  0  0  0  0  0  0  0  0
   27.5900   27.9900   11.8000 N   0  0  0  0  0  0  0  0  0  0  0  0
   24.3900   23.1300   11.5200 N   0  0  0  0  0  0  0  0  0  0  0  0
   19.7200   24.8800   11.3900 N   0  0  0  0  0  0  0  0  0  0  0  0
   26.3200   26.1300   10.5100 C   0  0  0  0  0  0  0  0  0  0  0  0
   26.6400   26.8600   11.8500 C   0  0  0  0  0  0  0  0  0  0  0  0
   25.4800   23.8300   11.2600 C   0  0  0  0  0  0  0  0  0  0  0  0
   23.9200   25.2400   10.6700 C   0  0  0  0  0  0  0  0  0  0  0  0
   23.4400   24.1000   11.2300 C   0  0  0  0  0  0  0  0  0  0  0  0
   26.9000   23.2600   11.5600 C   0  0  0  0  0  0  0  0  0  0  0  0
   28.4400   28.2000   12.9300 C   0  0  0  0  0  0  0  0  0  0  0  0
   26.9700   29.2100   11.1600 C   0  0  0  0  0  0  0  0  0  0  0  0
   23.0200   26.3200   10.3800 C   0  0  0  0  0  0  0  0  0  0  0  0
   22.0800   23.8900   11.4200 C   0  0  0  0  0  0  0  0  0  0  0  0
   26.9500   21.7800   11.4300 C   0  0  0  0  0  0  0  0  0  0  0  0
   21.1000   24.9600   11.1600 C   0  0  0  0  0  0  0  0  0  0  0  0
   29.2900   27.0400   13.4100 C   0  0  0  0  0  0  0  0  0  0  0  0
   27.9300   30.3900   10.9100 C   0  0  0  0  0  0  0  0  0  0  0  0
   21.6400   26.1600   10.6800 C   0  0  0  0  0  0  0  0  0  0  0  0
   26.9400   21.2200   10.1500 C   0  0  0  0  0  0  0  0  0  0  0  0
   27.0200   20.9800   12.5300 C   0  0  0  0  0  0  0  0  0  0  0  0
   27.0500   19.9200    9.9500 C   0  0  0  0  0  0  0  0  0  0  0  0
   27.0500   19.5900   12.2900 C   0  0  0  0  0  0  0  0  0  0  0  0
   27.0500   19.0400   11.0200 C   0  0  0  0  0  0  0  0  0  0  0  0
   19.0200   25.8000   10.9800 O   0  0  0  0  0  0  0  0  0  0  0  0
   19.2500   23.8400   11.9500 O   0  0  0  0  0  0  0  0  0  0  0  0
   26.0100   26.8000    9.7100 H   0  0  0  0  0  0  0  0  0  0  0  0
   27.2600   25.7300   10.1100 H   0  0  0  0  0  0  0  0  0  0  0  0
   25.7400   27.3100   12.2800 H   0  0  0  0  0  0  0  0  0  0  0  0
   26.9500   26.0900   12.5600 H   0  0  0  0  0  0  0  0  0  0  0  0
   27.6100   23.6000   10.8100 H   0  0  0  0  0  0  0  0  0  0  0  0
   27.2200   23.6300   12.5400 H   0  0  0  0  0  0  0  0  0  0  0  0
   27.8500   28.5400   13.7900 H   0  0  0  0  0  0  0  0  0  0  0  0
   29.2100   28.9400   12.7300 H   0  0  0  0  0  0  0  0  0  0  0  0
   26.1100   29.6200   11.7000 H   0  0  0  0  0  0  0  0  0  0  0  0
   26.6100   28.9100   10.1700 H   0  0  0  0  0  0  0  0  0  0  0  0
   23.3600   27.2400    9.9300 H   0  0  0  0  0  0  0  0  0  0  0  0
   21.7900   22.9600   11.8900 H   0  0  0  0  0  0  0  0  0  0  0  0
   28.5100   26.4100   13.8500 H   0  0  0  0  0  0  0  0  0  0  0  0
   29.7800   26.4600   12.6200 H   0  0  0  0  0  0  0  0  0  0  0  0
   30.0700   27.2600   14.1400 H   0  0  0  0  0  0  0  0  0  0  0  0
   27.5100   31.1200   10.2200 H   0  0  0  0  0  0  0  0  0  0  0  0
   28.9200   30.0900   10.5400 H   0  0  0  0  0  0  0  0  0  0  0  0
   28.2400   30.8000   11.8700 H   0  0  0  0  0  0  0  0  0  0  0  0
   21.0900   27.0000   10.2800 H   0  0  0  0  0  0  0  0  0  0  0  0
   26.9300   21.8400    9.2600 H   0  0  0  0  0  0  0  0  0  0  0  0
   26.9400   21.3900   13.5400 H   0  0  0  0  0  0  0  0  0  0  0  0
   27.1400   19.3900    9.0100 H   0  0  0  0  0  0  0  0  0  0  0  0
   27.0400   18.8800   13.1100 H   0  0  0  0  0  0  0  0  0  0  0  0
   27.1300   17.9700   10.8800 H   0  0  0  0  0  0  0  0  0  0  0  0
  1  5  1  0  0  0  0
  1  7  1  0  0  0  0
  1  8  1  0  0  0  0
  2  6  1  0  0  0  0
  2 11  1  0  0  0  0
  2 12  1  0  0  0  0
  3  7  1  0  0  0  0
  3  9  1  0  0  0  0
  4 16  1  0  0  0  0
  4 25  1  0  0  0  0
  4 26  1  0  0  0  0
  5  6  1  0  0  0  0
  5 27  1  0  0  0  0
  5 28  1  0  0  0  0
  6 29  1  0  0  0  0
  6 30  1  0  0  0  0
  7 10  1  0  0  0  0
  8  9  1  0  0  0  0
  8 13  1  0  0  0  0
  9 14  1  0  0  0  0
 10 15  1  0  0  0  0
 10 31  1  0  0  0  0
 10 32  1  0  0  0  0
 11 17  1  0  0  0  0
 11 33  1  0  0  0  0
 11 34  1  0  0  0  0
 12 18  1  0  0  0  0
 12 35  1  0  0  0  0
 12 36  1  0  0  0  0
 13 19  1  0  0  0  0
 13 37  1  0  0  0  0
 14 16  1  0  0  0  0
 14 38  1  0  0  0  0
 15 20  1  0  0  0  0
 15 21  1  0  0  0  0
 16 19  1  0  0  0  0
 17 39  1  0  0  0  0
 17 40  1  0  0  0  0
 17 41  1  0  0  0  0
 18 42  1  0  0  0  0
 18 43  1  0  0  0  0
 18 44  1  0  0  0  0
 19 45  1  0  0  0  0
 20 22  1  0  0  0  0
 20 46  1  0  0  0  0
 21 23  1  0  0  0  0
 21 47  1  0  0  0  0
 22 24  1  0  0  0  0
 22 48  1  0  0  0  0
 23 24  1  0  0  0  0
 23 49  1  0  0  0  0
 24 50  1  0  0  0  0
M  END
$$$$
Nit_dihe
  PyMOL2.3          3D                             0

 50 52  0  0  0  0  0  0  0  0999 V2000
   23.7700   22.7200   11.5000 N   0  0  0  0  0  0  0  0  0  0  0  0
   25.2500   23.0700   15.0000 N   0  0  0  0  0  0  0  0  0  0  0  0
   22.9800   23.7100    9.6400 N   0  0  0  0  0  0  0  0  0  0  0  0
   27.1400   23.0400    7.0000 N   0  0  0  0  0  0  0  0  0  0  0  0
   23.8700   22.3800   12.9100 C   0  0  0  0  0  0  0  0  0  0  0  0
   25.0300   23.3100   13.4700 C   0  0  0  0  0  0  0  0  0  0  0  0
   22.6800   23.3100   10.9100 C   0  0  0  0  0  0  0  0  0  0  0  0
   24.7100   22.6400   10.6100 C   0  0  0  0  0  0  0  0  0  0  0  0
   24.2400   23.1500    9.4000 C   0  0  0  0  0  0  0  0  0  0  0  0
   21.3900   23.8100   11.4600 C   0  0  0  0  0  0  0  0  0  0  0  0
   24.5800   24.0000   15.9800 C   0  0  0  0  0  0  0  0  0  0  0  0
   26.4800   22.4000   15.5000 C   0  0  0  0  0  0  0  0  0  0  0  0
   26.0200   22.0700   10.5200 C   0  0  0  0  0  0  0  0  0  0  0  0
   25.0100   23.2900    8.2200 C   0  0  0  0  0  0  0  0  0  0  0  0
   21.7000   25.0600   12.3600 C   0  0  0  0  0  0  0  0  0  0  0  0
   26.3100   22.7800    8.1900 C   0  0  0  0  0  0  0  0  0  0  0  0
   25.1300   25.4500   15.9700 C   0  0  0  0  0  0  0  0  0  0  0  0
   27.1500   21.3600   14.6200 C   0  0  0  0  0  0  0  0  0  0  0  0
   26.8600   22.1600    9.3700 C   0  0  0  0  0  0  0  0  0  0  0  0
   21.9900   26.3200   11.8200 C   0  0  0  0  0  0  0  0  0  0  0  0
   21.5300   24.9500   13.7400 C   0  0  0  0  0  0  0  0  0  0  0  0
   22.3000   27.4100   12.6200 C   0  0  0  0  0  0  0  0  0  0  0  0
   21.8200   26.0400   14.5400 C   0  0  0  0  0  0  0  0  0  0  0  0
   22.2000   27.2800   13.9700 C   0  0  0  0  0  0  0  0  0  0  0  0
   26.7700   23.7700    6.0800 O   0  0  0  0  0  0  0  0  0  0  0  0
   28.1900   22.4400    6.9200 O   0  0  0  0  0  0  0  0  0  0  0  0
   24.0500   21.3300   13.1500 H   0  0  0  0  0  0  0  0  0  0  0  0
   22.9600   22.6300   13.4700 H   0  0  0  0  0  0  0  0  0  0  0  0
   26.0100   23.1300   13.0100 H   0  0  0  0  0  0  0  0  0  0  0  0
   24.8500   24.3800   13.3100 H   0  0  0  0  0  0  0  0  0  0  0  0
   20.7600   24.1000   10.6100 H   0  0  0  0  0  0  0  0  0  0  0  0
   20.9800   23.0100   12.0700 H   0  0  0  0  0  0  0  0  0  0  0  0
   24.6300   23.5800   16.9900 H   0  0  0  0  0  0  0  0  0  0  0  0
   23.5000   24.0200   15.8200 H   0  0  0  0  0  0  0  0  0  0  0  0
   26.2700   21.9400   16.4700 H   0  0  0  0  0  0  0  0  0  0  0  0
   27.2000   23.1800   15.7600 H   0  0  0  0  0  0  0  0  0  0  0  0
   26.4500   21.5900   11.4000 H   0  0  0  0  0  0  0  0  0  0  0  0
   24.7200   23.8100    7.3200 H   0  0  0  0  0  0  0  0  0  0  0  0
   25.3900   25.7900   14.9600 H   0  0  0  0  0  0  0  0  0  0  0  0
   24.3600   26.0300   16.4900 H   0  0  0  0  0  0  0  0  0  0  0  0
   26.0900   25.5100   16.4800 H   0  0  0  0  0  0  0  0  0  0  0  0
   26.3900   20.6300   14.3200 H   0  0  0  0  0  0  0  0  0  0  0  0
   27.9100   20.7700   15.1500 H   0  0  0  0  0  0  0  0  0  0  0  0
   27.6000   21.7600   13.7000 H   0  0  0  0  0  0  0  0  0  0  0  0
   27.8400   21.7000    9.3500 H   0  0  0  0  0  0  0  0  0  0  0  0
   22.0400   26.3900   10.7400 H   0  0  0  0  0  0  0  0  0  0  0  0
   21.1400   24.0100   14.1000 H   0  0  0  0  0  0  0  0  0  0  0  0
   22.6100   28.3100   12.1100 H   0  0  0  0  0  0  0  0  0  0  0  0
   21.7600   25.9000   15.6100 H   0  0  0  0  0  0  0  0  0  0  0  0
   22.3500   28.1000   14.6700 H   0  0  0  0  0  0  0  0  0  0  0  0
  1  5  1  0  0  0  0
  1  7  1  0  0  0  0
  1  8  1  0  0  0  0
  2  6  1  0  0  0  0
  2 11  1  0  0  0  0
  2 12  1  0  0  0  0
  3  7  1  0  0  0  0
  3  9  1  0  0  0  0
  4 16  1  0  0  0  0
  4 25  1  0  0  0  0
  4 26  1  0  0  0  0
  5  6  1  0  0  0  0
  5 27  1  0  0  0  0
  5 28  1  0  0  0  0
  6 29  1  0  0  0  0
  6 30  1  0  0  0  0
  7 10  1  0  0  0  0
  8  9  1  0  0  0  0
  8 13  1  0  0  0  0
  9 14  1  0  0  0  0
 10 15  1  0  0  0  0
 10 31  1  0  0  0  0
 10 32  1  0  0  0  0
 11 17  1  0  0  0  0
 11 33  1  0  0  0  0
 11 34  1  0  0  0  0
 12 18  1  0  0  0  0
 12 35  1  0  0  0  0
 12 36  1  0  0  0  0
 13 19  1  0  0  0  0
 13 37  1  0  0  0  0
 14 16  1  0  0  0  0
 14 38  1  0  0  0  0
 15 20  1  0  0  0  0
 15 21  1  0  0  0  0
 16 19  1  0  0  0  0
 17 39  1  0  0  0  0
 17 40  1  0  0  0  0
 17 41  1  0  0  0  0
 18 42  1  0  0  0  0
 18 43  1  0  0  0  0
 18 44  1  0  0  0  0
 19 45  1  0  0  0  0
 20 22  1  0  0  0  0
 20 46  1  0  0  0  0
 21 23  1  0  0  0  0
 21 47  1  0  0  0  0
 22 24  1  0  0  0  0
 22 48  1  0  0  0  0
 23 24  1  0  0  0  0
 23 49  1  0  0  0  0
 24 50  1  0  0  0  0
M  END
$$$$
Nit_dihe
  PyMOL2.3          3D                             0

 50 52  0  0  0  0  0  0  0  0999 V2000
   25.2800   23.3800   12.1100 N   0  0  0  0  0  0  0  0  0  0  0  0
   23.3800   23.0700    8.8800 N   0  0  0  0  0  0  0  0  0  0  0  0
   27.3500   23.5200   13.0500 N   0  0  0  0  0  0  0  0  0  0  0  0
   26.3900   20.2400   16.6000 N   0  0  0  0  0  0  0  0  0  0  0  0
   24.2400   23.6900   11.2100 C   0  0  0  0  0  0  0  0  0  0  0  0
   24.4600   22.9400    9.9000 C   0  0  0  0  0  0  0  0  0  0  0  0
   26.5300   24.0200   12.1500 C   0  0  0  0  0  0  0  0  0  0  0  0
   25.3000   22.5000   13.2000 C   0  0  0  0  0  0  0  0  0  0  0  0
   26.5700   22.6600   13.7600 C   0  0  0  0  0  0  0  0  0  0  0  0
   27.0800   25.0400   11.2400 C   0  0  0  0  0  0  0  0  0  0  0  0
   22.0400   22.5200    9.2500 C   0  0  0  0  0  0  0  0  0  0  0  0
   23.4000   24.3800    8.1600 C   0  0  0  0  0  0  0  0  0  0  0  0
   24.4000   21.6400   13.7500 C   0  0  0  0  0  0  0  0  0  0  0  0
   26.9200   21.8800   14.8200 C   0  0  0  0  0  0  0  0  0  0  0  0
   26.4700   26.4000   11.4100 C   0  0  0  0  0  0  0  0  0  0  0  0
   26.0700   20.9700   15.4300 C   0  0  0  0  0  0  0  0  0  0  0  0
   22.1100   21.1300    9.8000 C   0  0  0  0  0  0  0  0  0  0  0  0
   22.9600   24.0700    6.7100 C   0  0  0  0  0  0  0  0  0  0  0  0
   24.8200   20.8700   14.8300 C   0  0  0  0  0  0  0  0  0  0  0  0
   26.4700   26.9000   12.7400 C   0  0  0  0  0  0  0  0  0  0  0  0
   25.8200   27.1600   10.3800 C   0  0  0  0  0  0  0  0  0  0  0  0
   25.8500   28.1300   13.0300 C   0  0  0  0  0  0  0  0  0  0  0  0
   25.2200   28.3800   10.7000 C   0  0  0  0  0  0  0  0  0  0  0  0
   25.1500   28.8600   11.9900 C   0  0  0  0  0  0  0  0  0  0  0  0
   25.5100   19.5400   17.0500 O   0  0  0  0  0  0  0  0  0  0  0  0
   27.4800   20.3800   17.0800 O   0  0  0  0  0  0  0  0  0  0  0  0
   24.1900   24.7600   10.9900 H   0  0  0  0  0  0  0  0  0  0  0  0
   23.2500   23.4900   11.6300 H   0  0  0  0  0  0  0  0  0  0  0  0
   25.3800   23.2500    9.4000 H   0  0  0  0  0  0  0  0  0  0  0  0
   24.6100   21.8800   10.1400 H   0  0  0  0  0  0  0  0  0  0  0  0
   28.1600   25.1400   11.4500 H   0  0  0  0  0  0  0  0  0  0  0  0
   26.8800   24.7000   10.2300 H   0  0  0  0  0  0  0  0  0  0  0  0
   21.4500   22.4200    8.3400 H   0  0  0  0  0  0  0  0  0  0  0  0
   21.5500   23.1900    9.9600 H   0  0  0  0  0  0  0  0  0  0  0  0
   24.3800   24.8400    8.3000 H   0  0  0  0  0  0  0  0  0  0  0  0
   22.7100   25.0600    8.6500 H   0  0  0  0  0  0  0  0  0  0  0  0
   23.3900   21.4900   13.3800 H   0  0  0  0  0  0  0  0  0  0  0  0
   27.9600   21.9100   15.1200 H   0  0  0  0  0  0  0  0  0  0  0  0
   22.5800   20.4200    9.1100 H   0  0  0  0  0  0  0  0  0  0  0  0
   22.7000   21.1900   10.7200 H   0  0  0  0  0  0  0  0  0  0  0  0
   21.0900   20.7700    9.9900 H   0  0  0  0  0  0  0  0  0  0  0  0
   23.1100   24.9900    6.1400 H   0  0  0  0  0  0  0  0  0  0  0  0
   21.9000   23.7900    6.6700 H   0  0  0  0  0  0  0  0  0  0  0  0
   23.5000   23.2500    6.2300 H   0  0  0  0  0  0  0  0  0  0  0  0
   24.0600   20.2300   15.2700 H   0  0  0  0  0  0  0  0  0  0  0  0
   26.7500   26.3000   13.6000 H   0  0  0  0  0  0  0  0  0  0  0  0
   25.9700   26.7100    9.4000 H   0  0  0  0  0  0  0  0  0  0  0  0
   25.7500   28.4800   14.0500 H   0  0  0  0  0  0  0  0  0  0  0  0
   24.7000   28.9600    9.9500 H   0  0  0  0  0  0  0  0  0  0  0  0
   24.5200   29.7100   12.2200 H   0  0  0  0  0  0  0  0  0  0  0  0
  1  5  1  0  0  0  0
  1  7  1  0  0  0  0
  1  8  1  0  0  0  0
  2  6  1  0  0  0  0
  2 11  1  0  0  0  0
  2 12  1  0  0  0  0
  3  7  1  0  0  0  0
  3  9  1  0  0  0  0
  4 16  1  0  0  0  0
  4 25  1  0  0  0  0
  4 26  1  0  0  0  0
  5  6  1  0  0  0  0
  5 27  1  0  0  0  0
  5 28  1  0  0  0  0
  6 29  1  0  0  0  0
  6 30  1  0  0  0  0
  7 10  1  0  0  0  0
  8  9  1  0  0  0  0
  8 13  1  0  0  0  0
  9 14  1  0  0  0  0
 10 15  1  0  0  0  0
 10 31  1  0  0  0  0
 10 32  1  0  0  0  0
 11 17  1  0  0  0  0
 11 33  1  0  0  0  0
 11 34  1  0  0  0  0
 12 18  1  0  0  0  0
 12 35  1  0  0  0  0
 12 36  1  0  0  0  0
 13 19  1  0  0  0  0
 13 37  1  0  0  0  0
 14 16  1  0  0  0  0
 14 38  1  0  0  0  0
 15 20  1  0  0  0  0
 15 21  1  0  0  0  0
 16 19  1  0  0  0  0
 17 39  1  0  0  0  0
 17 40  1  0  0  0  0
 17 41  1  0  0  0  0
 18 42  1  0  0  0  0
 18 43  1  0  0  0  0
 18 44  1  0  0  0  0
 19 45  1  0  0  0  0
 20 22  1  0  0  0  0
 20 46  1  0  0  0  0
 21 23  1  0  0  0  0
 21 47  1  0  0  0  0
 22 24  1  0  0  0  0
 22 48  1  0  0  0  0
 23 24  1  0  0  0  0
 23 49  1  0  0  0  0
 24 50  1  0  0  0  0
M  END
$$$$
Nit_dihe
  PyMOL2.3          3D                             0

 50 52  0  0  0  0  0  0  0  0999 V2000
   24.2400   25.9700   11.8900 N   0  0  0  0  0  0  0  0  0  0  0  0
   25.6100   27.3700   15.2200 N   0  0  0  0  0  0  0  0  0  0  0  0
   24.1600   24.3700   10.3100 N   0  0  0  0  0  0  0  0  0  0  0  0
   24.7800   27.6400    6.5600 N   0  0  0  0  0  0  0  0  0  0  0  0
   24.2100   26.5900   13.2400 C   0  0  0  0  0  0  0  0  0  0  0  0
   25.6200   26.6300   13.9100 C   0  0  0  0  0  0  0  0  0  0  0  0
   24.0700   24.6100   11.5900 C   0  0  0  0  0  0  0  0  0  0  0  0
   24.4500   26.6600   10.6800 C   0  0  0  0  0  0  0  0  0  0  0  0
   24.3700   25.6300    9.7200 C   0  0  0  0  0  0  0  0  0  0  0  0
   23.9300   23.5100   12.6600 C   0  0  0  0  0  0  0  0  0  0  0  0
   25.8000   28.8500   15.2000 C   0  0  0  0  0  0  0  0  0  0  0  0
   24.8800   26.7300   16.3000 C   0  0  0  0  0  0  0  0  0  0  0  0
   24.6400   28.0500   10.3100 C   0  0  0  0  0  0  0  0  0  0  0  0
   24.5300   26.0300    8.3400 C   0  0  0  0  0  0  0  0  0  0  0  0
   23.8400   22.0900   12.2300 C   0  0  0  0  0  0  0  0  0  0  0  0
   24.6700   27.3500    7.9600 C   0  0  0  0  0  0  0  0  0  0  0  0
   26.2600   29.4000   16.5100 C   0  0  0  0  0  0  0  0  0  0  0  0
   23.4900   27.2700   16.5300 C   0  0  0  0  0  0  0  0  0  0  0  0
   24.7700   28.3600    8.9800 C   0  0  0  0  0  0  0  0  0  0  0  0
   25.0200   21.3400   12.1600 C   0  0  0  0  0  0  0  0  0  0  0  0
   22.5900   21.5400   11.9700 C   0  0  0  0  0  0  0  0  0  0  0  0
   25.0100   19.9300   11.8200 C   0  0  0  0  0  0  0  0  0  0  0  0
   22.5800   20.2200   11.4700 C   0  0  0  0  0  0  0  0  0  0  0  0
   23.7200   19.4300   11.3900 C   0  0  0  0  0  0  0  0  0  0  0  0
   24.1500   26.8800    5.7400 O   0  0  0  0  0  0  0  0  0  0  0  0
   25.4400   28.6600    6.2400 O   0  0  0  0  0  0  0  0  0  0  0  0
   23.6500   25.9300   13.9100 H   0  0  0  0  0  0  0  0  0  0  0  0
   23.7400   27.5800   13.2600 H   0  0  0  0  0  0  0  0  0  0  0  0
   25.8800   25.5900   14.1200 H   0  0  0  0  0  0  0  0  0  0  0  0
   26.3500   27.1000   13.2500 H   0  0  0  0  0  0  0  0  0  0  0  0
   24.7000   23.7300   13.4100 H   0  0  0  0  0  0  0  0  0  0  0  0
   23.0000   23.6800   13.2000 H   0  0  0  0  0  0  0  0  0  0  0  0
   24.8400   29.3200   14.9700 H   0  0  0  0  0  0  0  0  0  0  0  0
   26.4500   29.1200   14.3600 H   0  0  0  0  0  0  0  0  0  0  0  0
   25.4800   26.7800   17.2100 H   0  0  0  0  0  0  0  0  0  0  0  0
   24.7600   25.6500   16.1600 H   0  0  0  0  0  0  0  0  0  0  0  0
   24.6900   28.8100   11.0800 H   0  0  0  0  0  0  0  0  0  0  0  0
   24.5600   25.2800    7.5500 H   0  0  0  0  0  0  0  0  0  0  0  0
   25.6000   29.0300   17.3100 H   0  0  0  0  0  0  0  0  0  0  0  0
   27.2600   29.0000   16.6900 H   0  0  0  0  0  0  0  0  0  0  0  0
   26.2800   30.4800   16.6500 H   0  0  0  0  0  0  0  0  0  0  0  0
   23.5400   28.1600   17.1700 H   0  0  0  0  0  0  0  0  0  0  0  0
   22.8700   26.5500   17.0800 H   0  0  0  0  0  0  0  0  0  0  0  0
   22.9700   27.5100   15.6000 H   0  0  0  0  0  0  0  0  0  0  0  0
   24.9100   29.3900    8.6800 H   0  0  0  0  0  0  0  0  0  0  0  0
   25.9800   21.8000   12.4100 H   0  0  0  0  0  0  0  0  0  0  0  0
   21.6300   22.0600   12.0300 H   0  0  0  0  0  0  0  0  0  0  0  0
   25.9100   19.3300   11.7900 H   0  0  0  0  0  0  0  0  0  0  0  0
   21.6300   19.8600   11.1100 H   0  0  0  0  0  0  0  0  0  0  0  0
   23.7400   18.4100   11.0400 H   0  0  0  0  0  0  0  0  0  0  0  0
  1  5  1  0  0  0  0
  1  7  1  0  0  0  0
  1  8  1  0  0  0  0
  2  6  1  0  0  0  0
  2 11  1  0  0  0  0
  2 12  1  0  0  0  0
  3  7  1  0  0  0  0
  3  9  1  0  0  0  0
  4 16  1  0  0  0  0
  4 25  1  0  0  0  0
  4 26  1  0  0  0  0
  5  6  1  0  0  0  0
  5 27  1  0  0  0  0
  5 28  1  0  0  0  0
  6 29  1  0  0  0  0
  6 30  1  0  0  0  0
  7 10  1  0  0  0  0
  8  9  1  0  0  0  0
  8 13  1  0  0  0  0
  9 14  1  0  0  0  0
 10 15  1  0  0  0  0
 10 31  1  0  0  0  0
 10 32  1  0  0  0  0
 11 17  1  0  0  0  0
 11 33  1  0  0  0  0
 11 34  1  0  0  0  0
 12 18  1  0  0  0  0
 12 35  1  0  0  0  0
 12 36  1  0  0  0  0
 13 19  1  0  0  0  0
 13 37  1  0  0  0  0
 14 16  1  0  0  0  0
 14 38  1  0  0  0  0
 15 20  1  0  0  0  0
 15 21  1  0  0  0  0
 16 19  1  0  0  0  0
 17 39  1  0  0  0  0
 17 40  1  0  0  0  0
 17 41  1  0  0  0  0
 18 42  1  0  0  0  0
 18 43  1  0  0  0  0
 18 44  1  0  0  0  0
 19 45  1  0  0  0  0
 20 22  1  0  0  0  0
 20 46  1  0  0  0  0
 21 23  1  0  0  0  0
 21 47  1  0  0  0  0
 22 24  1  0  0  0  0
 22 48  1  0  0  0  0
 23 24  1  0  0  0  0
 23 49  1  0  0  0  0
 24 50  1  0  0  0  0
M  END
$$$$
Nit_dihe
  PyMOL2.3          3D                             0

 50 52  0  0  0  0  0  0  0  0999 V2000
   24.0200   25.2200   12.3800 N   0  0  0  0  0  0  0  0  0  0  0  0
   27.6700   24.8300   13.2100 N   0  0  0  0  0  0  0  0  0  0  0  0
   22.1100   24.6900   11.3100 N   0  0  0  0  0  0  0  0  0  0  0  0
   21.6500   29.2000    9.3000 N   0  0  0  0  0  0  0  0  0  0  0  0
   25.2100   25.1500   13.2100 C   0  0  0  0  0  0  0  0  0  0  0  0
   26.3900   24.6100   12.4800 C   0  0  0  0  0  0  0  0  0  0  0  0
   23.0500   24.2000   12.0800 C   0  0  0  0  0  0  0  0  0  0  0  0
   23.6100   26.3100   11.6600 C   0  0  0  0  0  0  0  0  0  0  0  0
   22.5300   25.9600   10.9500 C   0  0  0  0  0  0  0  0  0  0  0  0
   23.0800   22.8100   12.6200 C   0  0  0  0  0  0  0  0  0  0  0  0
   28.0500   26.2100   13.6300 C   0  0  0  0  0  0  0  0  0  0  0  0
   28.7800   23.9900   12.7300 C   0  0  0  0  0  0  0  0  0  0  0  0
   24.2100   27.5700   11.4600 C   0  0  0  0  0  0  0  0  0  0  0  0
   21.8400   26.9200   10.1900 C   0  0  0  0  0  0  0  0  0  0  0  0
   21.9400   21.8200   12.1700 C   0  0  0  0  0  0  0  0  0  0  0  0
   22.3900   28.2000   10.0300 C   0  0  0  0  0  0  0  0  0  0  0  0
   28.3900   26.9700   12.3500 C   0  0  0  0  0  0  0  0  0  0  0  0
   28.6500   22.5400   13.2000 C   0  0  0  0  0  0  0  0  0  0  0  0
   23.6100   28.4900   10.6200 C   0  0  0  0  0  0  0  0  0  0  0  0
   22.0300   21.0600   10.9600 C   0  0  0  0  0  0  0  0  0  0  0  0
   20.8800   21.5300   13.0300 C   0  0  0  0  0  0  0  0  0  0  0  0
   21.0800   20.0300   10.6600 C   0  0  0  0  0  0  0  0  0  0  0  0
   20.0500   20.4100   12.8400 C   0  0  0  0  0  0  0  0  0  0  0  0
   20.1700   19.7200   11.6400 C   0  0  0  0  0  0  0  0  0  0  0  0
   20.4900   28.9800    9.2200 O   0  0  0  0  0  0  0  0  0  0  0  0
   22.2000   30.2100    8.8500 O   0  0  0  0  0  0  0  0  0  0  0  0
   24.9500   24.5100   14.0500 H   0  0  0  0  0  0  0  0  0  0  0  0
   25.4900   26.1600   13.5300 H   0  0  0  0  0  0  0  0  0  0  0  0
   26.2700   23.5600   12.2000 H   0  0  0  0  0  0  0  0  0  0  0  0
   26.4900   25.0900   11.5000 H   0  0  0  0  0  0  0  0  0  0  0  0
   24.1200   22.4900   12.6200 H   0  0  0  0  0  0  0  0  0  0  0  0
   22.8500   23.0100   13.6700 H   0  0  0  0  0  0  0  0  0  0  0  0
   28.9200   26.1300   14.2900 H   0  0  0  0  0  0  0  0  0  0  0  0
   27.2500   26.7100   14.1800 H   0  0  0  0  0  0  0  0  0  0  0  0
   29.7400   24.3300   13.1300 H   0  0  0  0  0  0  0  0  0  0  0  0
   28.6500   24.0800   11.6400 H   0  0  0  0  0  0  0  0  0  0  0  0
   25.0800   27.9400   11.9800 H   0  0  0  0  0  0  0  0  0  0  0  0
   20.8700   26.6500    9.7700 H   0  0  0  0  0  0  0  0  0  0  0  0
   27.4600   27.5000   12.1200 H   0  0  0  0  0  0  0  0  0  0  0  0
   29.1500   27.7400   12.4800 H   0  0  0  0  0  0  0  0  0  0  0  0
   28.7100   26.2800   11.5600 H   0  0  0  0  0  0  0  0  0  0  0  0
   27.8000   22.1800   12.6200 H   0  0  0  0  0  0  0  0  0  0  0  0
   28.5900   22.5300   14.2900 H   0  0  0  0  0  0  0  0  0  0  0  0
   29.5300   21.9700   12.9100 H   0  0  0  0  0  0  0  0  0  0  0  0
   24.1300   29.4400   10.6000 H   0  0  0  0  0  0  0  0  0  0  0  0
   22.8500   21.2400   10.2700 H   0  0  0  0  0  0  0  0  0  0  0  0
   20.7900   22.0000   14.0100 H   0  0  0  0  0  0  0  0  0  0  0  0
   21.0400   19.5400    9.6900 H   0  0  0  0  0  0  0  0  0  0  0  0
   19.3500   20.1200   13.6100 H   0  0  0  0  0  0  0  0  0  0  0  0
   19.4900   18.8800   11.6000 H   0  0  0  0  0  0  0  0  0  0  0  0
  1  5  1  0  0  0  0
  1  7  1  0  0  0  0
  1  8  1  0  0  0  0
  2  6  1  0  0  0  0
  2 11  1  0  0  0  0
  2 12  1  0  0  0  0
  3  7  1  0  0  0  0
  3  9  1  0  0  0  0
  4 16  1  0  0  0  0
  4 25  1  0  0  0  0
  4 26  1  0  0  0  0
  5  6  1  0  0  0  0
  5 27  1  0  0  0  0
  5 28  1  0  0  0  0
  6 29  1  0  0  0  0
  6 30  1  0  0  0  0
  7 10  1  0  0  0  0
  8  9  1  0  0  0  0
  8 13  1  0  0  0  0
  9 14  1  0  0  0  0
 10 15  1  0  0  0  0
 10 31  1  0  0  0  0
 10 32  1  0  0  0  0
 11 17  1  0  0  0  0
 11 33  1  0  0  0  0
 11 34  1  0  0  0  0
 12 18  1  0  0  0  0
 12 35  1  0  0  0  0
 12 36  1  0  0  0  0
 13 19  1  0  0  0  0
 13 37  1  0  0  0  0
 14 16  1  0  0  0  0
 14 38  1  0  0  0  0
 15 20  1  0  0  0  0
 15 21  1  0  0  0  0
 16 19  1  0  0  0  0
 17 39  1  0  0  0  0
 17 40  1  0  0  0  0
 17 41  1  0  0  0  0
 18 42  1  0  0  0  0
 18 43  1  0  0  0  0
 18 44  1  0  0  0  0
 19 45  1  0  0  0  0
 20 22  1  0  0  0  0
 20 46  1  0  0  0  0
 21 23  1  0  0  0  0
 21 47  1  0  0  0  0
 22 24  1  0  0  0  0
 22 48  1  0  0  0  0
 23 24  1  0  0  0  0
 23 49  1  0  0  0  0
 24 50  1  0  0  0  0
M  END
$$$$
Nit_dihe
  PyMOL2.3          3D                             0

 50 52  0  0  0  0  0  0  0  0999 V2000
   24.1400   23.9100   11.7400 N   0  0  0  0  0  0  0  0  0  0  0  0
   27.2500   22.8000   13.7300 N   0  0  0  0  0  0  0  0  0  0  0  0
   23.0100   23.8900    9.8100 N   0  0  0  0  0  0  0  0  0  0  0  0
   22.8200   28.8200    9.5500 N   0  0  0  0  0  0  0  0  0  0  0  0
   24.8700   23.4500   12.9400 C   0  0  0  0  0  0  0  0  0  0  0  0
   26.3600   23.6400   12.8000 C   0  0  0  0  0  0  0  0  0  0  0  0
   23.5700   23.1600   10.7900 C   0  0  0  0  0  0  0  0  0  0  0  0
   23.7900   25.2400   11.4500 C   0  0  0  0  0  0  0  0  0  0  0  0
   23.1600   25.1800   10.2300 C   0  0  0  0  0  0  0  0  0  0  0  0
   23.7800   21.7000   10.6600 C   0  0  0  0  0  0  0  0  0  0  0  0
   26.9700   21.3400   13.6800 C   0  0  0  0  0  0  0  0  0  0  0  0
   27.7000   23.3200   15.0400 C   0  0  0  0  0  0  0  0  0  0  0  0
   24.1500   26.4600   12.0200 C   0  0  0  0  0  0  0  0  0  0  0  0
   22.8500   26.3800    9.6000 C   0  0  0  0  0  0  0  0  0  0  0  0
   23.0900   21.0500    9.4800 C   0  0  0  0  0  0  0  0  0  0  0  0
   23.1500   27.6500   10.1700 C   0  0  0  0  0  0  0  0  0  0  0  0
   27.9400   20.4600   14.4700 C   0  0  0  0  0  0  0  0  0  0  0  0
   26.6600   23.2300   16.1300 C   0  0  0  0  0  0  0  0  0  0  0  0
   23.8300   27.6600   11.3600 C   0  0  0  0  0  0  0  0  0  0  0  0
   21.9300   20.3100    9.5800 C   0  0  0  0  0  0  0  0  0  0  0  0
   23.7300   21.3300    8.2800 C   0  0  0  0  0  0  0  0  0  0  0  0
   21.2800   19.9800    8.4000 C   0  0  0  0  0  0  0  0  0  0  0  0
   23.1200   20.9400    7.1200 C   0  0  0  0  0  0  0  0  0  0  0  0
   21.8400   20.2700    7.1800 C   0  0  0  0  0  0  0  0  0  0  0  0
   22.5600   29.8600   10.3200 O   0  0  0  0  0  0  0  0  0  0  0  0
   22.7200   28.7600    8.3100 O   0  0  0  0  0  0  0  0  0  0  0  0
   24.6200   22.4000   13.1300 H   0  0  0  0  0  0  0  0  0  0  0  0
   24.5400   24.0700   13.7700 H   0  0  0  0  0  0  0  0  0  0  0  0
   26.6200   23.3600   11.7700 H   0  0  0  0  0  0  0  0  0  0  0  0
   26.5600   24.7100   12.9400 H   0  0  0  0  0  0  0  0  0  0  0  0
   24.8500   21.4800   10.6000 H   0  0  0  0  0  0  0  0  0  0  0  0
   23.3600   21.2700   11.5800 H   0  0  0  0  0  0  0  0  0  0  0  0
   27.0500   20.9800   12.6500 H   0  0  0  0  0  0  0  0  0  0  0  0
   26.0200   21.0700   14.1500 H   0  0  0  0  0  0  0  0  0  0  0  0
   28.0800   24.3300   14.8600 H   0  0  0  0  0  0  0  0  0  0  0  0
   28.5800   22.7900   15.4200 H   0  0  0  0  0  0  0  0  0  0  0  0
   24.7200   26.6000   12.9300 H   0  0  0  0  0  0  0  0  0  0  0  0
   22.2900   26.4100    8.6700 H   0  0  0  0  0  0  0  0  0  0  0  0
   27.8100   19.3900   14.3000 H   0  0  0  0  0  0  0  0  0  0  0  0
   28.9200   20.7500   14.0900 H   0  0  0  0  0  0  0  0  0  0  0  0
   27.9200   20.6000   15.5600 H   0  0  0  0  0  0  0  0  0  0  0  0
   26.9800   23.7200   17.0600 H   0  0  0  0  0  0  0  0  0  0  0  0
   26.5000   22.1700   16.3500 H   0  0  0  0  0  0  0  0  0  0  0  0
   25.6700   23.5700   15.8400 H   0  0  0  0  0  0  0  0  0  0  0  0
   24.0900   28.6200   11.7900 H   0  0  0  0  0  0  0  0  0  0  0  0
   21.4500   20.1500   10.5400 H   0  0  0  0  0  0  0  0  0  0  0  0
   24.6300   21.9200    8.2500 H   0  0  0  0  0  0  0  0  0  0  0  0
   20.3300   19.5100    8.6500 H   0  0  0  0  0  0  0  0  0  0  0  0
   23.5300   21.2400    6.1600 H   0  0  0  0  0  0  0  0  0  0  0  0
   21.3600   19.9600    6.2600 H   0  0  0  0  0  0  0  0  0  0  0  0
  1  5  1  0  0  0  0
  1  7  1  0  0  0  0
  1  8  1  0  0  0  0
  2  6  1  0  0  0  0
  2 11  1  0  0  0  0
  2 12  1  0  0  0  0
  3  7  1  0  0  0  0
  3  9  1  0  0  0  0
  4 16  1  0  0  0  0
  4 25  1  0  0  0  0
  4 26  1  0  0  0  0
  5  6  1  0  0  0  0
  5 27  1  0  0  0  0
  5 28  1  0  0  0  0
  6 29  1  0  0  0  0
  6 30  1  0  0  0  0
  7 10  1  0  0  0  0
  8  9  1  0  0  0  0
  8 13  1  0  0  0  0
  9 14  1  0  0  0  0
 10 15  1  0  0  0  0
 10 31  1  0  0  0  0
 10 32  1  0  0  0  0
 11 17  1  0  0  0  0
 11 33  1  0  0  0  0
 11 34  1  0  0  0  0
 12 18  1  0  0  0  0
 12 35  1  0  0  0  0
 12 36  1  0  0  0  0
 13 19  1  0  0  0  0
 13 37  1  0  0  0  0
 14 16  1  0  0  0  0
 14 38  1  0  0  0  0
 15 20  1  0  0  0  0
 15 21  1  0  0  0  0
 16 19  1  0  0  0  0
 17 39  1  0  0  0  0
 17 40  1  0  0  0  0
 17 41  1  0  0  0  0
 18 42  1  0  0  0  0
 18 43  1  0  0  0  0
 18 44  1  0  0  0  0
 19 45  1  0  0  0  0
 20 22  1  0  0  0  0
 20 46  1  0  0  0  0
 21 23  1  0  0  0  0
 21 47  1  0  0  0  0
 22 24  1  0  0  0  0
 22 48  1  0  0  0  0
 23 24  1  0  0  0  0
 23 49  1  0  0  0  0
 24 50  1  0  0  0  0
M  END
$$$$
Nit_dihe
  PyMOL2.3          3D                             0

 50 52  0  0  0  0  0  0  0  0999 V2000
   26.0300   24.1900   11.1200 N   0  0  0  0  0  0  0  0  0  0  0  0
   26.7900   26.0600   14.2800 N   0  0  0  0  0  0  0  0  0  0  0  0
   24.8700   23.6800    9.3400 N   0  0  0  0  0  0  0  0  0  0  0  0
   28.8400   23.3800    6.4900 N   0  0  0  0  0  0  0  0  0  0  0  0
   26.2600   24.3700   12.5500 C   0  0  0  0  0  0  0  0  0  0  0  0
   26.3300   25.9100   12.8800 C   0  0  0  0  0  0  0  0  0  0  0  0
   24.7500   23.9900   10.6300 C   0  0  0  0  0  0  0  0  0  0  0  0
   26.9700   23.9600   10.1700 C   0  0  0  0  0  0  0  0  0  0  0  0
   26.2200   23.6900    9.0300 C   0  0  0  0  0  0  0  0  0  0  0  0
   23.4200   24.1600   11.4200 C   0  0  0  0  0  0  0  0  0  0  0  0
   25.8600   25.5400   15.2900 C   0  0  0  0  0  0  0  0  0  0  0  0
   28.2500   25.9500   14.5300 C   0  0  0  0  0  0  0  0  0  0  0  0
   28.4000   24.0100   10.1700 C   0  0  0  0  0  0  0  0  0  0  0  0
   26.8600   23.4700    7.8000 C   0  0  0  0  0  0  0  0  0  0  0  0
   22.1400   23.8700   10.6300 C   0  0  0  0  0  0  0  0  0  0  0  0
   28.2300   23.5800    7.7200 C   0  0  0  0  0  0  0  0  0  0  0  0
   25.9300   26.2500   16.6800 C   0  0  0  0  0  0  0  0  0  0  0  0
   29.1700   26.6400   13.4600 C   0  0  0  0  0  0  0  0  0  0  0  0
   28.9900   23.8700    8.9000 C   0  0  0  0  0  0  0  0  0  0  0  0
   21.5400   24.9000    9.9100 C   0  0  0  0  0  0  0  0  0  0  0  0
   21.5300   22.6000   10.6700 C   0  0  0  0  0  0  0  0  0  0  0  0
   20.3000   24.6600    9.2500 C   0  0  0  0  0  0  0  0  0  0  0  0
   20.3400   22.3600    9.9800 C   0  0  0  0  0  0  0  0  0  0  0  0
   19.7000   23.4200    9.2400 C   0  0  0  0  0  0  0  0  0  0  0  0
   28.2200   22.7500    5.6200 O   0  0  0  0  0  0  0  0  0  0  0  0
   30.0500   23.7500    6.2300 O   0  0  0  0  0  0  0  0  0  0  0  0
   27.2500   23.9900   12.8200 H   0  0  0  0  0  0  0  0  0  0  0  0
   25.4700   23.8300   13.0900 H   0  0  0  0  0  0  0  0  0  0  0  0
   27.0100   26.4600   12.2200 H   0  0  0  0  0  0  0  0  0  0  0  0
   25.3300   26.3300   12.8200 H   0  0  0  0  0  0  0  0  0  0  0  0
   23.3500   23.5200   12.3000 H   0  0  0  0  0  0  0  0  0  0  0  0
   23.2200   25.1800   11.7600 H   0  0  0  0  0  0  0  0  0  0  0  0
   26.1700   24.5000   15.4000 H   0  0  0  0  0  0  0  0  0  0  0  0
   24.9000   25.6500   14.7900 H   0  0  0  0  0  0  0  0  0  0  0  0
   28.5700   24.9000   14.5000 H   0  0  0  0  0  0  0  0  0  0  0  0
   28.4300   26.3900   15.5200 H   0  0  0  0  0  0  0  0  0  0  0  0
   29.0700   24.2400   10.9900 H   0  0  0  0  0  0  0  0  0  0  0  0
   26.2900   23.2100    6.9100 H   0  0  0  0  0  0  0  0  0  0  0  0
   26.9500   26.5700   16.9300 H   0  0  0  0  0  0  0  0  0  0  0  0
   25.2600   27.1100   16.6400 H   0  0  0  0  0  0  0  0  0  0  0  0
   25.5600   25.5800   17.4700 H   0  0  0  0  0  0  0  0  0  0  0  0
   28.7600   27.6300   13.2000 H   0  0  0  0  0  0  0  0  0  0  0  0
   29.2500   25.9600   12.6100 H   0  0  0  0  0  0  0  0  0  0  0  0
   30.1800   26.7600   13.8600 H   0  0  0  0  0  0  0  0  0  0  0  0
   30.0500   24.0900    8.8300 H   0  0  0  0  0  0  0  0  0  0  0  0
   22.0200   25.8600    9.7600 H   0  0  0  0  0  0  0  0  0  0  0  0
   22.0200   21.7500   11.1500 H   0  0  0  0  0  0  0  0  0  0  0  0
   19.8000   25.4200    8.6600 H   0  0  0  0  0  0  0  0  0  0  0  0
   19.9700   21.3500    9.8700 H   0  0  0  0  0  0  0  0  0  0  0  0
   18.8100   23.2900    8.6200 H   0  0  0  0  0  0  0  0  0  0  0  0
  1  5  1  0  0  0  0
  1  7  1  0  0  0  0
  1  8  1  0  0  0  0
  2  6  1  0  0  0  0
  2 11  1  0  0  0  0
  2 12  1  0  0  0  0
  3  7  1  0  0  0  0
  3  9  1  0  0  0  0
  4 16  1  0  0  0  0
  4 25  1  0  0  0  0
  4 26  1  0  0  0  0
  5  6  1  0  0  0  0
  5 27  1  0  0  0  0
  5 28  1  0  0  0  0
  6 29  1  0  0  0  0
  6 30  1  0  0  0  0
  7 10  1  0  0  0  0
  8  9  1  0  0  0  0
  8 13  1  0  0  0  0
  9 14  1  0  0  0  0
 10 15  1  0  0  0  0
 10 31  1  0  0  0  0
 10 32  1  0  0  0  0
 11 17  1  0  0  0  0
 11 33  1  0  0  0  0
 11 34  1  0  0  0  0
 12 18  1  0  0  0  0
 12 35  1  0  0  0  0
 12 36  1  0  0  0  0
 13 19  1  0  0  0  0
 13 37  1  0  0  0  0
 14 16  1  0  0  0  0
 14 38  1  0  0  0  0
 15 20  1  0  0  0  0
 15 21  1  0  0  0  0
 16 19  1  0  0  0  0
 17 39  1  0  0  0  0
 17 40  1  0  0  0  0
 17 41  1  0  0  0  0
 18 42  1  0  0  0  0
 18 43  1  0  0  0  0
 18 44  1  0  0  0  0
 19 45  1  0  0  0  0
 20 22  1  0  0  0  0
 20 46  1  0  0  0  0
 21 23  1  0  0  0  0
 21 47  1  0  0  0  0
 22 24  1  0  0  0  0
 22 48  1  0  0  0  0
 23 24  1  0  0  0  0
 23 49  1  0  0  0  0
 24 50  1  0  0  0  0
M  END
$$$$
Nit_dihe
  PyMOL2.3          3D                             0

 50 52  0  0  0  0  0  0  0  0999 V2000
   25.7300   25.7800   12.3200 N   0  0  0  0  0  0  0  0  0  0  0  0
   24.9300   27.6400   14.6700 N   0  0  0  0  0  0  0  0  0  0  0  0
   25.0800   23.5900   12.1600 N   0  0  0  0  0  0  0  0  0  0  0  0
   24.8600   23.6700    7.1700 N   0  0  0  0  0  0  0  0  0  0  0  0
   26.3900   27.0100   12.7100 C   0  0  0  0  0  0  0  0  0  0  0  0
   25.4600   28.0100   13.3300 C   0  0  0  0  0  0  0  0  0  0  0  0
   25.4300   24.5700   12.9800 C   0  0  0  0  0  0  0  0  0  0  0  0
   25.5600   25.5000   10.9700 C   0  0  0  0  0  0  0  0  0  0  0  0
   25.1600   24.1700   10.9000 C   0  0  0  0  0  0  0  0  0  0  0  0
   25.3400   24.3100   14.4900 C   0  0  0  0  0  0  0  0  0  0  0  0
   23.5300   27.7600   14.9500 C   0  0  0  0  0  0  0  0  0  0  0  0
   25.8700   27.7200   15.7900 C   0  0  0  0  0  0  0  0  0  0  0  0
   25.7000   26.2300    9.8000 C   0  0  0  0  0  0  0  0  0  0  0  0
   24.9000   23.5100    9.6500 C   0  0  0  0  0  0  0  0  0  0  0  0
   24.8700   22.8800   14.9000 C   0  0  0  0  0  0  0  0  0  0  0  0
   25.0800   24.2600    8.4700 C   0  0  0  0  0  0  0  0  0  0  0  0
   22.9200   29.1200   14.7200 C   0  0  0  0  0  0  0  0  0  0  0  0
   26.1400   29.1200   16.2600 C   0  0  0  0  0  0  0  0  0  0  0  0
   25.4600   25.6200    8.5600 C   0  0  0  0  0  0  0  0  0  0  0  0
   25.7900   21.8800   15.2200 C   0  0  0  0  0  0  0  0  0  0  0  0
   23.4900   22.5900   14.9900 C   0  0  0  0  0  0  0  0  0  0  0  0
   25.4300   20.5700   15.6200 C   0  0  0  0  0  0  0  0  0  0  0  0
   23.1000   21.2500   15.3400 C   0  0  0  0  0  0  0  0  0  0  0  0
   24.0600   20.2800   15.6900 C   0  0  0  0  0  0  0  0  0  0  0  0
   24.8800   22.4600    7.0800 O   0  0  0  0  0  0  0  0  0  0  0  0
   24.6700   24.4600    6.2300 O   0  0  0  0  0  0  0  0  0  0  0  0
   26.9000   27.4200   11.8300 H   0  0  0  0  0  0  0  0  0  0  0  0
   27.1800   26.7600   13.4200 H   0  0  0  0  0  0  0  0  0  0  0  0
   26.0500   28.9300   13.4800 H   0  0  0  0  0  0  0  0  0  0  0  0
   24.6700   28.2800   12.6300 H   0  0  0  0  0  0  0  0  0  0  0  0
   26.3500   24.3200   14.9200 H   0  0  0  0  0  0  0  0  0  0  0  0
   24.6500   25.0800   14.8500 H   0  0  0  0  0  0  0  0  0  0  0  0
   23.4700   27.3600   15.9700 H   0  0  0  0  0  0  0  0  0  0  0  0
   22.9800   27.1200   14.2600 H   0  0  0  0  0  0  0  0  0  0  0  0
   26.8500   27.2300   15.7000 H   0  0  0  0  0  0  0  0  0  0  0  0
   25.5100   27.0600   16.5800 H   0  0  0  0  0  0  0  0  0  0  0  0
   25.9200   27.2800    9.9500 H   0  0  0  0  0  0  0  0  0  0  0  0
   24.5100   22.5000    9.5800 H   0  0  0  0  0  0  0  0  0  0  0  0
   23.1200   29.3900   13.6800 H   0  0  0  0  0  0  0  0  0  0  0  0
   21.8500   28.9900   14.9300 H   0  0  0  0  0  0  0  0  0  0  0  0
   23.4200   29.7700   15.4400 H   0  0  0  0  0  0  0  0  0  0  0  0
   25.3000   29.5400   16.8200 H   0  0  0  0  0  0  0  0  0  0  0  0
   26.4000   29.7500   15.4100 H   0  0  0  0  0  0  0  0  0  0  0  0
   27.0300   29.1100   16.8900 H   0  0  0  0  0  0  0  0  0  0  0  0
   25.6700   26.2900    7.7400 H   0  0  0  0  0  0  0  0  0  0  0  0
   26.8600   22.0200   15.2700 H   0  0  0  0  0  0  0  0  0  0  0  0
   22.8000   23.4200   14.8700 H   0  0  0  0  0  0  0  0  0  0  0  0
   26.0900   19.7300   15.8200 H   0  0  0  0  0  0  0  0  0  0  0  0
   22.0500   21.0200   15.1700 H   0  0  0  0  0  0  0  0  0  0  0  0
   23.8400   19.2500   15.9800 H   0  0  0  0  0  0  0  0  0  0  0  0
  1  5  1  0  0  0  0
  1  7  1  0  0  0  0
  1  8  1  0  0  0  0
  2  6  1  0  0  0  0
  2 11  1  0  0  0  0
  2 12  1  0  0  0  0
  3  7  1  0  0  0  0
  3  9  1  0  0  0  0
  4 16  1  0  0  0  0
  4 25  1  0  0  0  0
  4 26  1  0  0  0  0
  5  6  1  0  0  0  0
  5 27  1  0  0  0  0
  5 28  1  0  0  0  0
  6 29  1  0  0  0  0
  6 30  1  0  0  0  0
  7 10  1  0  0  0  0
  8  9  1  0  0  0  0
  8 13  1  0  0  0  0
  9 14  1  0  0  0  0
 10 15  1  0  0  0  0
 10 31  1  0  0  0  0
 10 32  1  0  0  0  0
 11 17  1  0  0  0  0
 11 33  1  0  0  0  0
 11 34  1  0  0  0  0
 12 18  1  0  0  0  0
 12 35  1  0  0  0  0
 12 36  1  0  0  0  0
 13 19  1  0  0  0  0
 13 37  1  0  0  0  0
 14 16  1  0  0  0  0
 14 38  1  0  0  0  0
 15 20  1  0  0  0  0
 15 21  1  0  0  0  0
 16 19  1  0  0  0  0
 17 39  1  0  0  0  0
 17 40  1  0  0  0  0
 17 41  1  0  0  0  0
 18 42  1  0  0  0  0
 18 43  1  0  0  0  0
 18 44  1  0  0  0  0
 19 45  1  0  0  0  0
 20 22  1  0  0  0  0
 20 46  1  0  0  0  0
 21 23  1  0  0  0  0
 21 47  1  0  0  0  0
 22 24  1  0  0  0  0
 22 48  1  0  0  0  0
 23 24  1  0  0  0  0
 23 49  1  0  0  0  0
 24 50  1  0  0  0  0
M  END
$$$$
